* NGSPICE file created from vco_adc_wrapper.ext - technology: sky130A

* Black-box entry subcircuit for sky130_fd_sc_hd__decap_6 abstract view
.subckt sky130_fd_sc_hd__decap_6 VGND VNB VPB VPWR
.ends

* Black-box entry subcircuit for sky130_fd_sc_hd__fill_2 abstract view
.subckt sky130_fd_sc_hd__fill_2 VGND VNB VPB VPWR
.ends

* Black-box entry subcircuit for sky130_fd_sc_hd__fill_1 abstract view
.subckt sky130_fd_sc_hd__fill_1 VGND VNB VPB VPWR
.ends

* Black-box entry subcircuit for sky130_ef_sc_hd__decap_12 abstract view
.subckt sky130_ef_sc_hd__decap_12 VGND VNB VPB VPWR
.ends

* Black-box entry subcircuit for sky130_fd_sc_hd__decap_4 abstract view
.subckt sky130_fd_sc_hd__decap_4 VGND VNB VPB VPWR
.ends

* Black-box entry subcircuit for sky130_fd_sc_hd__diode_2 abstract view
.subckt sky130_fd_sc_hd__diode_2 DIODE VGND VNB VPB VPWR
.ends

* Black-box entry subcircuit for sky130_fd_sc_hd__decap_8 abstract view
.subckt sky130_fd_sc_hd__decap_8 VGND VNB VPB VPWR
.ends

* Black-box entry subcircuit for sky130_fd_sc_hd__decap_3 abstract view
.subckt sky130_fd_sc_hd__decap_3 VGND VNB VPB VPWR
.ends

* Black-box entry subcircuit for sky130_fd_sc_hd__tapvpwrvgnd_1 abstract view
.subckt sky130_fd_sc_hd__tapvpwrvgnd_1 VGND VPWR
.ends

* Black-box entry subcircuit for sky130_fd_sc_hd__dfxtp_4 abstract view
.subckt sky130_fd_sc_hd__dfxtp_4 CLK D VGND VNB VPB VPWR Q
.ends

* Black-box entry subcircuit for sky130_fd_sc_hd__nor2_1 abstract view
.subckt sky130_fd_sc_hd__nor2_1 A B VGND VNB VPB VPWR Y
.ends

* Black-box entry subcircuit for sky130_fd_sc_hd__clkbuf_1 abstract view
.subckt sky130_fd_sc_hd__clkbuf_1 A VGND VNB VPB VPWR X
.ends

* Black-box entry subcircuit for sky130_fd_sc_hd__buf_1 abstract view
.subckt sky130_fd_sc_hd__buf_1 A VGND VNB VPB VPWR X
.ends

* Black-box entry subcircuit for sky130_fd_sc_hd__dlymetal6s2s_1 abstract view
.subckt sky130_fd_sc_hd__dlymetal6s2s_1 A VGND VNB VPB VPWR X
.ends

* Black-box entry subcircuit for sky130_fd_sc_hd__clkbuf_2 abstract view
.subckt sky130_fd_sc_hd__clkbuf_2 A VGND VNB VPB VPWR X
.ends

* Black-box entry subcircuit for sky130_fd_sc_hd__or4_2 abstract view
.subckt sky130_fd_sc_hd__or4_2 A B C D VGND VNB VPB VPWR X
.ends

* Black-box entry subcircuit for sky130_fd_sc_hd__dfxtp_1 abstract view
.subckt sky130_fd_sc_hd__dfxtp_1 CLK D VGND VNB VPB VPWR Q
.ends

* Black-box entry subcircuit for sky130_fd_sc_hd__a22o_1 abstract view
.subckt sky130_fd_sc_hd__a22o_1 A1 A2 B1 B2 VGND VNB VPB VPWR X
.ends

* Black-box entry subcircuit for sky130_fd_sc_hd__a21oi_1 abstract view
.subckt sky130_fd_sc_hd__a21oi_1 A1 A2 B1 VGND VNB VPB VPWR Y
.ends

* Black-box entry subcircuit for sky130_fd_sc_hd__buf_6 abstract view
.subckt sky130_fd_sc_hd__buf_6 A VGND VNB VPB VPWR X
.ends

* Black-box entry subcircuit for sky130_fd_sc_hd__o221a_1 abstract view
.subckt sky130_fd_sc_hd__o221a_1 A1 A2 B1 B2 C1 VGND VNB VPB VPWR X
.ends

* Black-box entry subcircuit for sky130_fd_sc_hd__dfxtp_2 abstract view
.subckt sky130_fd_sc_hd__dfxtp_2 CLK D VGND VNB VPB VPWR Q
.ends

* Black-box entry subcircuit for sky130_fd_sc_hd__mux2_1 abstract view
.subckt sky130_fd_sc_hd__mux2_1 A0 A1 S VGND VNB VPB VPWR X
.ends

* Black-box entry subcircuit for sky130_fd_sc_hd__and2_1 abstract view
.subckt sky130_fd_sc_hd__and2_1 A B VGND VNB VPB VPWR X
.ends

* Black-box entry subcircuit for sky130_fd_sc_hd__a221o_1 abstract view
.subckt sky130_fd_sc_hd__a221o_1 A1 A2 B1 B2 C1 VGND VNB VPB VPWR X
.ends

* Black-box entry subcircuit for sky130_fd_sc_hd__nand3_1 abstract view
.subckt sky130_fd_sc_hd__nand3_1 A B C VGND VNB VPB VPWR Y
.ends

* Black-box entry subcircuit for sky130_fd_sc_hd__dlygate4sd3_1 abstract view
.subckt sky130_fd_sc_hd__dlygate4sd3_1 A VGND VNB VPB VPWR X
.ends

* Black-box entry subcircuit for sky130_fd_sc_hd__or3_1 abstract view
.subckt sky130_fd_sc_hd__or3_1 A B C VGND VNB VPB VPWR X
.ends

* Black-box entry subcircuit for sky130_fd_sc_hd__o21a_1 abstract view
.subckt sky130_fd_sc_hd__o21a_1 A1 A2 B1 VGND VNB VPB VPWR X
.ends

* Black-box entry subcircuit for sky130_fd_sc_hd__a22oi_1 abstract view
.subckt sky130_fd_sc_hd__a22oi_1 A1 A2 B1 B2 VGND VNB VPB VPWR Y
.ends

* Black-box entry subcircuit for sky130_fd_sc_hd__mux4_1 abstract view
.subckt sky130_fd_sc_hd__mux4_1 A0 A1 A2 A3 S0 S1 VGND VNB VPB VPWR X
.ends

* Black-box entry subcircuit for sky130_fd_sc_hd__a21o_1 abstract view
.subckt sky130_fd_sc_hd__a21o_1 A1 A2 B1 VGND VNB VPB VPWR X
.ends

* Black-box entry subcircuit for sky130_fd_sc_hd__o21ai_1 abstract view
.subckt sky130_fd_sc_hd__o21ai_1 A1 A2 B1 VGND VNB VPB VPWR Y
.ends

* Black-box entry subcircuit for sky130_fd_sc_hd__a31o_1 abstract view
.subckt sky130_fd_sc_hd__a31o_1 A1 A2 A3 B1 VGND VNB VPB VPWR X
.ends

* Black-box entry subcircuit for sky130_fd_sc_hd__clkbuf_4 abstract view
.subckt sky130_fd_sc_hd__clkbuf_4 A VGND VNB VPB VPWR X
.ends

* Black-box entry subcircuit for sky130_fd_sc_hd__xor2_1 abstract view
.subckt sky130_fd_sc_hd__xor2_1 A B VGND VNB VPB VPWR X
.ends

* Black-box entry subcircuit for sky130_fd_sc_hd__a2bb2o_1 abstract view
.subckt sky130_fd_sc_hd__a2bb2o_1 A1_N A2_N B1 B2 VGND VNB VPB VPWR X
.ends

* Black-box entry subcircuit for sky130_fd_sc_hd__buf_8 abstract view
.subckt sky130_fd_sc_hd__buf_8 A VGND VNB VPB VPWR X
.ends

* Black-box entry subcircuit for sky130_fd_sc_hd__clkdlybuf4s25_1 abstract view
.subckt sky130_fd_sc_hd__clkdlybuf4s25_1 A VGND VNB VPB VPWR X
.ends

* Black-box entry subcircuit for sky130_fd_sc_hd__and3_1 abstract view
.subckt sky130_fd_sc_hd__and3_1 A B C VGND VNB VPB VPWR X
.ends

* Black-box entry subcircuit for sky130_fd_sc_hd__or3b_1 abstract view
.subckt sky130_fd_sc_hd__or3b_1 A B C_N VGND VNB VPB VPWR X
.ends

* Black-box entry subcircuit for sky130_fd_sc_hd__o22ai_1 abstract view
.subckt sky130_fd_sc_hd__o22ai_1 A1 A2 B1 B2 VGND VNB VPB VPWR Y
.ends

* Black-box entry subcircuit for sky130_fd_sc_hd__nand2_1 abstract view
.subckt sky130_fd_sc_hd__nand2_1 A B VGND VNB VPB VPWR Y
.ends

* Black-box entry subcircuit for sky130_fd_sc_hd__buf_2 abstract view
.subckt sky130_fd_sc_hd__buf_2 A VGND VNB VPB VPWR X
.ends

* Black-box entry subcircuit for sky130_fd_sc_hd__a21oi_2 abstract view
.subckt sky130_fd_sc_hd__a21oi_2 A1 A2 B1 VGND VNB VPB VPWR Y
.ends

* Black-box entry subcircuit for sky130_fd_sc_hd__and4_4 abstract view
.subckt sky130_fd_sc_hd__and4_4 A B C D VGND VNB VPB VPWR X
.ends

* Black-box entry subcircuit for sky130_fd_sc_hd__o2bb2a_1 abstract view
.subckt sky130_fd_sc_hd__o2bb2a_1 A1_N A2_N B1 B2 VGND VNB VPB VPWR X
.ends

* Black-box entry subcircuit for sky130_fd_sc_hd__nand4_1 abstract view
.subckt sky130_fd_sc_hd__nand4_1 A B C D VGND VNB VPB VPWR Y
.ends

* Black-box entry subcircuit for sky130_fd_sc_hd__inv_2 abstract view
.subckt sky130_fd_sc_hd__inv_2 A VGND VNB VPB VPWR Y
.ends

* Black-box entry subcircuit for sky130_fd_sc_hd__buf_4 abstract view
.subckt sky130_fd_sc_hd__buf_4 A VGND VNB VPB VPWR X
.ends

* Black-box entry subcircuit for sky130_fd_sc_hd__or4b_1 abstract view
.subckt sky130_fd_sc_hd__or4b_1 A B C D_N VGND VNB VPB VPWR X
.ends

* Black-box entry subcircuit for sky130_fd_sc_hd__o21bai_1 abstract view
.subckt sky130_fd_sc_hd__o21bai_1 A1 A2 B1_N VGND VNB VPB VPWR Y
.ends

* Black-box entry subcircuit for sky130_fd_sc_hd__nor3_1 abstract view
.subckt sky130_fd_sc_hd__nor3_1 A B C VGND VNB VPB VPWR Y
.ends

* Black-box entry subcircuit for sky130_fd_sc_hd__clkbuf_8 abstract view
.subckt sky130_fd_sc_hd__clkbuf_8 A VGND VNB VPB VPWR X
.ends

* Black-box entry subcircuit for sky130_fd_sc_hd__o211a_1 abstract view
.subckt sky130_fd_sc_hd__o211a_1 A1 A2 B1 C1 VGND VNB VPB VPWR X
.ends

* Black-box entry subcircuit for sky130_fd_sc_hd__and4_1 abstract view
.subckt sky130_fd_sc_hd__and4_1 A B C D VGND VNB VPB VPWR X
.ends

* Black-box entry subcircuit for sky130_fd_sc_hd__nand3_2 abstract view
.subckt sky130_fd_sc_hd__nand3_2 A B C VGND VNB VPB VPWR Y
.ends

* Black-box entry subcircuit for sky130_fd_sc_hd__clkbuf_16 abstract view
.subckt sky130_fd_sc_hd__clkbuf_16 A VGND VNB VPB VPWR X
.ends

* Black-box entry subcircuit for sky130_fd_sc_hd__or4_1 abstract view
.subckt sky130_fd_sc_hd__or4_1 A B C D VGND VNB VPB VPWR X
.ends

* Black-box entry subcircuit for sky130_fd_sc_hd__nor4b_1 abstract view
.subckt sky130_fd_sc_hd__nor4b_1 A B C D_N VGND VNB VPB VPWR Y
.ends

* Black-box entry subcircuit for sky130_fd_sc_hd__or2_1 abstract view
.subckt sky130_fd_sc_hd__or2_1 A B VGND VNB VPB VPWR X
.ends

* Black-box entry subcircuit for sky130_fd_sc_hd__a32o_1 abstract view
.subckt sky130_fd_sc_hd__a32o_1 A1 A2 A3 B1 B2 VGND VNB VPB VPWR X
.ends

* Black-box entry subcircuit for sky130_fd_sc_hd__a221oi_1 abstract view
.subckt sky130_fd_sc_hd__a221oi_1 A1 A2 B1 B2 C1 VGND VNB VPB VPWR Y
.ends

* Black-box entry subcircuit for sky130_fd_sc_hd__nor3b_1 abstract view
.subckt sky130_fd_sc_hd__nor3b_1 A B C_N VGND VNB VPB VPWR Y
.ends

* Black-box entry subcircuit for sky130_fd_sc_hd__nand2_4 abstract view
.subckt sky130_fd_sc_hd__nand2_4 A B VGND VNB VPB VPWR Y
.ends

* Black-box entry subcircuit for sky130_fd_sc_hd__a41o_1 abstract view
.subckt sky130_fd_sc_hd__a41o_1 A1 A2 A3 A4 B1 VGND VNB VPB VPWR X
.ends

* Black-box entry subcircuit for sky130_fd_sc_hd__a221o_4 abstract view
.subckt sky130_fd_sc_hd__a221o_4 A1 A2 B1 B2 C1 VGND VNB VPB VPWR X
.ends

* Black-box entry subcircuit for sky130_fd_sc_hd__o22a_1 abstract view
.subckt sky130_fd_sc_hd__o22a_1 A1 A2 B1 B2 VGND VNB VPB VPWR X
.ends

* Black-box entry subcircuit for sky130_fd_sc_hd__and3b_4 abstract view
.subckt sky130_fd_sc_hd__and3b_4 A_N B C VGND VNB VPB VPWR X
.ends

* Black-box entry subcircuit for sky130_fd_sc_hd__conb_1 abstract view
.subckt sky130_fd_sc_hd__conb_1 VGND VNB VPB VPWR HI LO
.ends

* Black-box entry subcircuit for sky130_fd_sc_hd__xnor2_1 abstract view
.subckt sky130_fd_sc_hd__xnor2_1 A B VGND VNB VPB VPWR Y
.ends

* Black-box entry subcircuit for sky130_fd_sc_hd__and2b_1 abstract view
.subckt sky130_fd_sc_hd__and2b_1 A_N B VGND VNB VPB VPWR X
.ends

* Black-box entry subcircuit for sky130_fd_sc_hd__nor4_1 abstract view
.subckt sky130_fd_sc_hd__nor4_1 A B C D VGND VNB VPB VPWR Y
.ends

* Black-box entry subcircuit for sky130_fd_sc_hd__nand2b_1 abstract view
.subckt sky130_fd_sc_hd__nand2b_1 A_N B VGND VNB VPB VPWR Y
.ends

* Black-box entry subcircuit for sky130_fd_sc_hd__nand2_2 abstract view
.subckt sky130_fd_sc_hd__nand2_2 A B VGND VNB VPB VPWR Y
.ends

* Black-box entry subcircuit for sky130_fd_sc_hd__and4bb_1 abstract view
.subckt sky130_fd_sc_hd__and4bb_1 A_N B_N C D VGND VNB VPB VPWR X
.ends

* Black-box entry subcircuit for sky130_fd_sc_hd__a211oi_1 abstract view
.subckt sky130_fd_sc_hd__a211oi_1 A1 A2 B1 C1 VGND VNB VPB VPWR Y
.ends

* Black-box entry subcircuit for sky130_fd_sc_hd__and2b_4 abstract view
.subckt sky130_fd_sc_hd__and2b_4 A_N B VGND VNB VPB VPWR X
.ends

* Black-box entry subcircuit for sky130_fd_sc_hd__clkinv_4 abstract view
.subckt sky130_fd_sc_hd__clkinv_4 A VGND VNB VPB VPWR Y
.ends

* Black-box entry subcircuit for sky130_fd_sc_hd__a311o_1 abstract view
.subckt sky130_fd_sc_hd__a311o_1 A1 A2 A3 B1 C1 VGND VNB VPB VPWR X
.ends

.subckt vco_adc_wrapper adc0_dat_i[0] adc0_dat_i[10] adc0_dat_i[11] adc0_dat_i[12]
+ adc0_dat_i[13] adc0_dat_i[14] adc0_dat_i[15] adc0_dat_i[16] adc0_dat_i[17] adc0_dat_i[18]
+ adc0_dat_i[19] adc0_dat_i[1] adc0_dat_i[20] adc0_dat_i[21] adc0_dat_i[22] adc0_dat_i[23]
+ adc0_dat_i[24] adc0_dat_i[25] adc0_dat_i[26] adc0_dat_i[27] adc0_dat_i[28] adc0_dat_i[29]
+ adc0_dat_i[2] adc0_dat_i[30] adc0_dat_i[31] adc0_dat_i[3] adc0_dat_i[4] adc0_dat_i[5]
+ adc0_dat_i[6] adc0_dat_i[7] adc0_dat_i[8] adc0_dat_i[9] adc1_dat_i[0] adc1_dat_i[10]
+ adc1_dat_i[11] adc1_dat_i[12] adc1_dat_i[13] adc1_dat_i[14] adc1_dat_i[15] adc1_dat_i[16]
+ adc1_dat_i[17] adc1_dat_i[18] adc1_dat_i[19] adc1_dat_i[1] adc1_dat_i[20] adc1_dat_i[21]
+ adc1_dat_i[22] adc1_dat_i[23] adc1_dat_i[24] adc1_dat_i[25] adc1_dat_i[26] adc1_dat_i[27]
+ adc1_dat_i[28] adc1_dat_i[29] adc1_dat_i[2] adc1_dat_i[30] adc1_dat_i[31] adc1_dat_i[3]
+ adc1_dat_i[4] adc1_dat_i[5] adc1_dat_i[6] adc1_dat_i[7] adc1_dat_i[8] adc1_dat_i[9]
+ adc2_dat_i[0] adc2_dat_i[10] adc2_dat_i[11] adc2_dat_i[12] adc2_dat_i[13] adc2_dat_i[14]
+ adc2_dat_i[15] adc2_dat_i[16] adc2_dat_i[17] adc2_dat_i[18] adc2_dat_i[19] adc2_dat_i[1]
+ adc2_dat_i[20] adc2_dat_i[21] adc2_dat_i[22] adc2_dat_i[23] adc2_dat_i[24] adc2_dat_i[25]
+ adc2_dat_i[26] adc2_dat_i[27] adc2_dat_i[28] adc2_dat_i[29] adc2_dat_i[2] adc2_dat_i[30]
+ adc2_dat_i[31] adc2_dat_i[3] adc2_dat_i[4] adc2_dat_i[5] adc2_dat_i[6] adc2_dat_i[7]
+ adc2_dat_i[8] adc2_dat_i[9] adc_dvalid_i[0] adc_dvalid_i[1] adc_dvalid_i[2] io_oeb[0]
+ io_oeb[10] io_oeb[11] io_oeb[12] io_oeb[13] io_oeb[14] io_oeb[15] io_oeb[16] io_oeb[17]
+ io_oeb[18] io_oeb[19] io_oeb[1] io_oeb[20] io_oeb[21] io_oeb[22] io_oeb[23] io_oeb[24]
+ io_oeb[25] io_oeb[26] io_oeb[27] io_oeb[28] io_oeb[29] io_oeb[2] io_oeb[30] io_oeb[31]
+ io_oeb[32] io_oeb[33] io_oeb[34] io_oeb[35] io_oeb[36] io_oeb[37] io_oeb[3] io_oeb[4]
+ io_oeb[5] io_oeb[6] io_oeb[7] io_oeb[8] io_oeb[9] io_out[0] io_out[10] io_out[11]
+ io_out[12] io_out[13] io_out[14] io_out[15] io_out[16] io_out[17] io_out[18] io_out[19]
+ io_out[1] io_out[20] io_out[21] io_out[22] io_out[23] io_out[24] io_out[25] io_out[26]
+ io_out[27] io_out[28] io_out[29] io_out[2] io_out[30] io_out[31] io_out[32] io_out[33]
+ io_out[34] io_out[35] io_out[36] io_out[37] io_out[3] io_out[4] io_out[5] io_out[6]
+ io_out[7] io_out[8] io_out[9] mem0_data_i[0] mem0_data_i[10] mem0_data_i[11] mem0_data_i[12]
+ mem0_data_i[13] mem0_data_i[14] mem0_data_i[15] mem0_data_i[16] mem0_data_i[17]
+ mem0_data_i[18] mem0_data_i[19] mem0_data_i[1] mem0_data_i[20] mem0_data_i[21] mem0_data_i[22]
+ mem0_data_i[23] mem0_data_i[24] mem0_data_i[25] mem0_data_i[26] mem0_data_i[27]
+ mem0_data_i[28] mem0_data_i[29] mem0_data_i[2] mem0_data_i[30] mem0_data_i[31] mem0_data_i[3]
+ mem0_data_i[4] mem0_data_i[5] mem0_data_i[6] mem0_data_i[7] mem0_data_i[8] mem0_data_i[9]
+ mem1_data_i[0] mem1_data_i[10] mem1_data_i[11] mem1_data_i[12] mem1_data_i[13] mem1_data_i[14]
+ mem1_data_i[15] mem1_data_i[16] mem1_data_i[17] mem1_data_i[18] mem1_data_i[19]
+ mem1_data_i[1] mem1_data_i[20] mem1_data_i[21] mem1_data_i[22] mem1_data_i[23] mem1_data_i[24]
+ mem1_data_i[25] mem1_data_i[26] mem1_data_i[27] mem1_data_i[28] mem1_data_i[29]
+ mem1_data_i[2] mem1_data_i[30] mem1_data_i[31] mem1_data_i[3] mem1_data_i[4] mem1_data_i[5]
+ mem1_data_i[6] mem1_data_i[7] mem1_data_i[8] mem1_data_i[9] mem2_data_i[0] mem2_data_i[10]
+ mem2_data_i[11] mem2_data_i[12] mem2_data_i[13] mem2_data_i[14] mem2_data_i[15]
+ mem2_data_i[16] mem2_data_i[17] mem2_data_i[18] mem2_data_i[19] mem2_data_i[1] mem2_data_i[20]
+ mem2_data_i[21] mem2_data_i[22] mem2_data_i[23] mem2_data_i[24] mem2_data_i[25]
+ mem2_data_i[26] mem2_data_i[27] mem2_data_i[28] mem2_data_i[29] mem2_data_i[2] mem2_data_i[30]
+ mem2_data_i[31] mem2_data_i[3] mem2_data_i[4] mem2_data_i[5] mem2_data_i[6] mem2_data_i[7]
+ mem2_data_i[8] mem2_data_i[9] mem3_data_i[0] mem3_data_i[10] mem3_data_i[11] mem3_data_i[12]
+ mem3_data_i[13] mem3_data_i[14] mem3_data_i[15] mem3_data_i[16] mem3_data_i[17]
+ mem3_data_i[18] mem3_data_i[19] mem3_data_i[1] mem3_data_i[20] mem3_data_i[21] mem3_data_i[22]
+ mem3_data_i[23] mem3_data_i[24] mem3_data_i[25] mem3_data_i[26] mem3_data_i[27]
+ mem3_data_i[28] mem3_data_i[29] mem3_data_i[2] mem3_data_i[30] mem3_data_i[31] mem3_data_i[3]
+ mem3_data_i[4] mem3_data_i[5] mem3_data_i[6] mem3_data_i[7] mem3_data_i[8] mem3_data_i[9]
+ mem_data_o[0] mem_data_o[10] mem_data_o[11] mem_data_o[12] mem_data_o[13] mem_data_o[14]
+ mem_data_o[15] mem_data_o[16] mem_data_o[17] mem_data_o[18] mem_data_o[19] mem_data_o[1]
+ mem_data_o[20] mem_data_o[21] mem_data_o[22] mem_data_o[23] mem_data_o[24] mem_data_o[25]
+ mem_data_o[26] mem_data_o[27] mem_data_o[28] mem_data_o[29] mem_data_o[2] mem_data_o[30]
+ mem_data_o[31] mem_data_o[3] mem_data_o[4] mem_data_o[5] mem_data_o[6] mem_data_o[7]
+ mem_data_o[8] mem_data_o[9] mem_raddr_o[0] mem_raddr_o[1] mem_raddr_o[2] mem_raddr_o[3]
+ mem_raddr_o[4] mem_raddr_o[5] mem_raddr_o[6] mem_raddr_o[7] mem_raddr_o[8] mem_renb_o[0]
+ mem_renb_o[1] mem_renb_o[2] mem_renb_o[3] mem_waddr_o[0] mem_waddr_o[1] mem_waddr_o[2]
+ mem_waddr_o[3] mem_waddr_o[4] mem_waddr_o[5] mem_waddr_o[6] mem_waddr_o[7] mem_waddr_o[8]
+ mem_wenb_o[0] mem_wenb_o[1] mem_wenb_o[2] mem_wenb_o[3] oversample_o[0] oversample_o[1]
+ oversample_o[2] oversample_o[3] oversample_o[4] oversample_o[5] oversample_o[6]
+ oversample_o[7] oversample_o[8] oversample_o[9] sinc3_en_o[0] sinc3_en_o[1] sinc3_en_o[2]
+ vccd1 vco_enb_o[0] vco_enb_o[1] vco_enb_o[2] vssd1 wb_clk_i wb_rst_i wbs_ack_o wbs_adr_i[0]
+ wbs_adr_i[10] wbs_adr_i[11] wbs_adr_i[12] wbs_adr_i[13] wbs_adr_i[14] wbs_adr_i[15]
+ wbs_adr_i[16] wbs_adr_i[17] wbs_adr_i[18] wbs_adr_i[19] wbs_adr_i[1] wbs_adr_i[20]
+ wbs_adr_i[21] wbs_adr_i[22] wbs_adr_i[23] wbs_adr_i[24] wbs_adr_i[25] wbs_adr_i[26]
+ wbs_adr_i[27] wbs_adr_i[28] wbs_adr_i[29] wbs_adr_i[2] wbs_adr_i[30] wbs_adr_i[31]
+ wbs_adr_i[3] wbs_adr_i[4] wbs_adr_i[5] wbs_adr_i[6] wbs_adr_i[7] wbs_adr_i[8] wbs_adr_i[9]
+ wbs_cyc_i wbs_dat_i[0] wbs_dat_i[10] wbs_dat_i[11] wbs_dat_i[12] wbs_dat_i[13] wbs_dat_i[14]
+ wbs_dat_i[15] wbs_dat_i[16] wbs_dat_i[17] wbs_dat_i[18] wbs_dat_i[19] wbs_dat_i[1]
+ wbs_dat_i[20] wbs_dat_i[21] wbs_dat_i[22] wbs_dat_i[23] wbs_dat_i[24] wbs_dat_i[25]
+ wbs_dat_i[26] wbs_dat_i[27] wbs_dat_i[28] wbs_dat_i[29] wbs_dat_i[2] wbs_dat_i[30]
+ wbs_dat_i[31] wbs_dat_i[3] wbs_dat_i[4] wbs_dat_i[5] wbs_dat_i[6] wbs_dat_i[7] wbs_dat_i[8]
+ wbs_dat_i[9] wbs_dat_o[0] wbs_dat_o[10] wbs_dat_o[11] wbs_dat_o[12] wbs_dat_o[13]
+ wbs_dat_o[14] wbs_dat_o[15] wbs_dat_o[16] wbs_dat_o[17] wbs_dat_o[18] wbs_dat_o[19]
+ wbs_dat_o[1] wbs_dat_o[20] wbs_dat_o[21] wbs_dat_o[22] wbs_dat_o[23] wbs_dat_o[24]
+ wbs_dat_o[25] wbs_dat_o[26] wbs_dat_o[27] wbs_dat_o[28] wbs_dat_o[29] wbs_dat_o[2]
+ wbs_dat_o[30] wbs_dat_o[31] wbs_dat_o[3] wbs_dat_o[4] wbs_dat_o[5] wbs_dat_o[6]
+ wbs_dat_o[7] wbs_dat_o[8] wbs_dat_o[9] wbs_sel_i[0] wbs_sel_i[1] wbs_sel_i[2] wbs_sel_i[3]
+ wbs_stb_i wbs_we_i wmask_o[0] wmask_o[1] wmask_o[2] wmask_o[3]
XFILLER_0_236_1309 vssd1 vssd1 vccd1 vccd1 sky130_fd_sc_hd__decap_6
XFILLER_0_94_77 vssd1 vssd1 vccd1 vccd1 sky130_fd_sc_hd__fill_2
XFILLER_0_20_1054 vssd1 vssd1 vccd1 vccd1 sky130_fd_sc_hd__fill_2
XFILLER_0_59_1231 vssd1 vssd1 vccd1 vccd1 sky130_fd_sc_hd__fill_1
XFILLER_0_241_529 vssd1 vssd1 vccd1 vccd1 sky130_ef_sc_hd__decap_12
XFILLER_0_20_1087 vssd1 vssd1 vccd1 vccd1 sky130_fd_sc_hd__decap_4
XFILLER_0_171_1301 vssd1 vssd1 vccd1 vccd1 sky130_ef_sc_hd__decap_12
XFILLER_0_136_1421 vssd1 vssd1 vccd1 vccd1 sky130_fd_sc_hd__decap_6
XFILLER_0_175_1481 vssd1 vssd1 vccd1 vccd1 sky130_ef_sc_hd__decap_12
XANTENNA__1231__CLK _1231_/CLK vssd1 vssd1 vccd1 vccd1 sky130_fd_sc_hd__diode_2
XFILLER_0_210_905 vssd1 vssd1 vccd1 vccd1 sky130_ef_sc_hd__decap_12
XFILLER_0_89_461 vssd1 vssd1 vccd1 vccd1 sky130_ef_sc_hd__decap_12
XFILLER_0_171_1345 vssd1 vssd1 vccd1 vccd1 sky130_ef_sc_hd__decap_12
XFILLER_0_167_809 vssd1 vssd1 vccd1 vccd1 sky130_ef_sc_hd__decap_12
XFILLER_0_136_1465 vssd1 vssd1 vccd1 vccd1 sky130_ef_sc_hd__decap_12
XFILLER_0_210_949 vssd1 vssd1 vccd1 vccd1 sky130_ef_sc_hd__decap_12
XFILLER_0_132_1329 vssd1 vssd1 vccd1 vccd1 sky130_ef_sc_hd__decap_12
XFILLER_0_72_1453 vssd1 vssd1 vccd1 vccd1 sky130_ef_sc_hd__decap_12
XFILLER_0_193_105 vssd1 vssd1 vccd1 vccd1 sky130_fd_sc_hd__decap_6
XFILLER_0_76_133 vssd1 vssd1 vccd1 vccd1 sky130_fd_sc_hd__decap_6
XFILLER_0_134_83 vssd1 vssd1 vccd1 vccd1 sky130_fd_sc_hd__fill_1
XFILLER_0_33_1437 vssd1 vssd1 vccd1 vccd1 sky130_ef_sc_hd__decap_12
XFILLER_0_212_1353 vssd1 vssd1 vccd1 vccd1 sky130_ef_sc_hd__decap_12
XFILLER_0_193_149 vssd1 vssd1 vccd1 vccd1 sky130_ef_sc_hd__decap_12
XFILLER_0_159_393 vssd1 vssd1 vccd1 vccd1 sky130_ef_sc_hd__decap_12
XFILLER_0_18_701 vssd1 vssd1 vccd1 vccd1 sky130_ef_sc_hd__decap_12
XFILLER_0_43_81 vssd1 vssd1 vccd1 vccd1 sky130_ef_sc_hd__decap_12
XFILLER_0_175_853 vssd1 vssd1 vccd1 vccd1 sky130_ef_sc_hd__decap_12
XFILLER_0_58_881 vssd1 vssd1 vccd1 vccd1 sky130_ef_sc_hd__decap_12
XFILLER_0_76_177 vssd1 vssd1 vccd1 vccd1 sky130_ef_sc_hd__decap_12
XFILLER_0_92_637 vssd1 vssd1 vccd1 vccd1 sky130_fd_sc_hd__decap_6
XFILLER_0_212_1397 vssd1 vssd1 vccd1 vccd1 sky130_ef_sc_hd__decap_12
XFILLER_0_91_125 vssd1 vssd1 vccd1 vccd1 sky130_ef_sc_hd__decap_12
XFILLER_0_174_363 vssd1 vssd1 vccd1 vccd1 sky130_fd_sc_hd__fill_1
XFILLER_0_57_391 vssd1 vssd1 vccd1 vccd1 sky130_fd_sc_hd__fill_1
XFILLER_0_175_897 vssd1 vssd1 vccd1 vccd1 sky130_ef_sc_hd__decap_12
XFILLER_0_119_279 vssd1 vssd1 vccd1 vccd1 sky130_fd_sc_hd__fill_1
XFILLER_0_162_525 vssd1 vssd1 vccd1 vccd1 sky130_fd_sc_hd__decap_6
XFILLER_0_45_553 vssd1 vssd1 vccd1 vccd1 sky130_fd_sc_hd__decap_6
XFILLER_0_247_1449 vssd1 vssd1 vccd1 vccd1 sky130_fd_sc_hd__decap_6
XFILLER_0_91_169 vssd1 vssd1 vccd1 vccd1 sky130_ef_sc_hd__decap_12
XFILLER_0_60_501 vssd1 vssd1 vccd1 vccd1 sky130_ef_sc_hd__decap_12
XFILLER_0_190_867 vssd1 vssd1 vccd1 vccd1 sky130_fd_sc_hd__fill_1
XFILLER_0_73_895 vssd1 vssd1 vccd1 vccd1 sky130_fd_sc_hd__fill_1
XFILLER_0_162_569 vssd1 vssd1 vccd1 vccd1 sky130_ef_sc_hd__decap_12
XFILLER_0_115_441 vssd1 vssd1 vccd1 vccd1 sky130_fd_sc_hd__decap_6
XFILLER_0_45_597 vssd1 vssd1 vccd1 vccd1 sky130_ef_sc_hd__decap_12
XFILLER_0_182_1441 vssd1 vssd1 vccd1 vccd1 sky130_ef_sc_hd__decap_12
XFILLER_0_60_545 vssd1 vssd1 vccd1 vccd1 sky130_ef_sc_hd__decap_12
XANTENNA__0965__B1 _0759_/X vssd1 vssd1 vccd1 vccd1 sky130_fd_sc_hd__diode_2
XFILLER_0_143_783 vssd1 vssd1 vccd1 vccd1 sky130_fd_sc_hd__fill_1
XFILLER_0_115_485 vssd1 vssd1 vccd1 vccd1 sky130_ef_sc_hd__decap_12
XFILLER_0_131_945 vssd1 vssd1 vccd1 vccd1 sky130_fd_sc_hd__decap_6
XFILLER_0_248_106 vssd1 vssd1 vccd1 vccd1 sky130_fd_sc_hd__decap_6
XFILLER_0_143_1425 vssd1 vssd1 vccd1 vccd1 sky130_ef_sc_hd__decap_12
XFILLER_0_14_973 vssd1 vssd1 vccd1 vccd1 sky130_fd_sc_hd__decap_6
XFILLER_0_182_1485 vssd1 vssd1 vccd1 vccd1 sky130_fd_sc_hd__decap_8
XFILLER_0_130_433 vssd1 vssd1 vccd1 vccd1 sky130_ef_sc_hd__decap_12
XFILLER_0_60_589 vssd1 vssd1 vccd1 vccd1 sky130_ef_sc_hd__decap_12
XFILLER_0_4_193 vssd1 vssd1 vccd1 vccd1 sky130_fd_sc_hd__decap_3
XFILLER_0_104_1409 vssd1 vssd1 vccd1 vccd1 sky130_ef_sc_hd__decap_12
XFILLER_0_131_989 vssd1 vssd1 vccd1 vccd1 sky130_ef_sc_hd__decap_12
XFILLER_0_143_1469 vssd1 vssd1 vccd1 vccd1 sky130_ef_sc_hd__decap_12
XFILLER_0_130_477 vssd1 vssd1 vccd1 vccd1 sky130_ef_sc_hd__decap_12
XANTENNA__0717__B1 _0675_/B vssd1 vssd1 vccd1 vccd1 sky130_fd_sc_hd__diode_2
XFILLER_0_7_92 vssd1 vssd1 vccd1 vccd1 sky130_ef_sc_hd__decap_12
XFILLER_0_223_1493 vssd1 vssd1 vccd1 vccd1 sky130_fd_sc_hd__fill_1
XFILLER_0_244_301 vssd1 vssd1 vccd1 vccd1 sky130_fd_sc_hd__decap_6
XFILLER_0_99_1033 vssd1 vssd1 vccd1 vccd1 sky130_ef_sc_hd__decap_12
XFILLER_0_217_559 vssd1 vssd1 vccd1 vccd1 sky130_fd_sc_hd__fill_1
XFILLER_0_99_1077 vssd1 vssd1 vccd1 vccd1 sky130_ef_sc_hd__decap_12
XFILLER_0_244_345 vssd1 vssd1 vccd1 vccd1 sky130_ef_sc_hd__decap_12
XFILLER_0_245_27 vssd1 vssd1 vccd1 vccd1 sky130_ef_sc_hd__decap_12
XFILLER_0_204_209 vssd1 vssd1 vccd1 vccd1 sky130_ef_sc_hd__decap_12
XFILLER_0_244_389 vssd1 vssd1 vccd1 vccd1 sky130_ef_sc_hd__decap_12
XFILLER_0_99_225 vssd1 vssd1 vccd1 vccd1 sky130_ef_sc_hd__decap_12
XTAP_3202 vssd1 vccd1 sky130_fd_sc_hd__tapvpwrvgnd_1
XFILLER_0_213_721 vssd1 vssd1 vccd1 vccd1 sky130_fd_sc_hd__decap_6
XTAP_3213 vssd1 vccd1 sky130_fd_sc_hd__tapvpwrvgnd_1
XFILLER_0_198_923 vssd1 vssd1 vccd1 vccd1 sky130_fd_sc_hd__fill_1
XFILLER_0_38_1315 vssd1 vssd1 vccd1 vccd1 sky130_fd_sc_hd__fill_1
XTAP_3224 vssd1 vccd1 sky130_fd_sc_hd__tapvpwrvgnd_1
XFILLER_0_217_1231 vssd1 vssd1 vccd1 vccd1 sky130_fd_sc_hd__fill_1
XTAP_3235 vssd1 vccd1 sky130_fd_sc_hd__tapvpwrvgnd_1
XFILLER_0_169_113 vssd1 vssd1 vccd1 vccd1 sky130_ef_sc_hd__decap_12
XTAP_2501 vssd1 vccd1 sky130_fd_sc_hd__tapvpwrvgnd_1
XTAP_3246 vssd1 vccd1 sky130_fd_sc_hd__tapvpwrvgnd_1
XFILLER_0_213_765 vssd1 vssd1 vccd1 vccd1 sky130_ef_sc_hd__decap_12
XFILLER_0_68_601 vssd1 vssd1 vccd1 vccd1 sky130_ef_sc_hd__decap_12
XTAP_2512 vssd1 vccd1 sky130_fd_sc_hd__tapvpwrvgnd_1
XTAP_3257 vssd1 vccd1 sky130_fd_sc_hd__tapvpwrvgnd_1
XTAP_2523 vssd1 vccd1 sky130_fd_sc_hd__tapvpwrvgnd_1
XTAP_3268 vssd1 vccd1 sky130_fd_sc_hd__tapvpwrvgnd_1
XFILLER_0_212_253 vssd1 vssd1 vccd1 vccd1 sky130_ef_sc_hd__decap_12
XTAP_2534 vssd1 vccd1 sky130_fd_sc_hd__tapvpwrvgnd_1
XTAP_3279 vssd1 vccd1 sky130_fd_sc_hd__tapvpwrvgnd_1
XTAP_1800 vssd1 vccd1 sky130_fd_sc_hd__tapvpwrvgnd_1
XTAP_2545 vssd1 vccd1 sky130_fd_sc_hd__tapvpwrvgnd_1
XFILLER_0_185_617 vssd1 vssd1 vccd1 vccd1 sky130_ef_sc_hd__decap_12
XTAP_1811 vssd1 vccd1 sky130_fd_sc_hd__tapvpwrvgnd_1
XFILLER_0_67_111 vssd1 vssd1 vccd1 vccd1 sky130_fd_sc_hd__fill_1
XTAP_2556 vssd1 vccd1 sky130_fd_sc_hd__tapvpwrvgnd_1
XFILLER_0_150_1429 vssd1 vssd1 vccd1 vccd1 sky130_ef_sc_hd__decap_12
XTAP_1822 vssd1 vccd1 sky130_fd_sc_hd__tapvpwrvgnd_1
XFILLER_0_68_645 vssd1 vssd1 vccd1 vccd1 sky130_ef_sc_hd__decap_12
XFILLER_0_36_1061 vssd1 vssd1 vccd1 vccd1 sky130_ef_sc_hd__decap_12
XTAP_2567 vssd1 vccd1 sky130_fd_sc_hd__tapvpwrvgnd_1
XFILLER_0_23_18 vssd1 vssd1 vccd1 vccd1 sky130_fd_sc_hd__decap_8
XTAP_1833 vssd1 vccd1 sky130_fd_sc_hd__tapvpwrvgnd_1
XTAP_2578 vssd1 vccd1 sky130_fd_sc_hd__tapvpwrvgnd_1
XTAP_1844 vssd1 vccd1 sky130_fd_sc_hd__tapvpwrvgnd_1
XTAP_2589 vssd1 vccd1 sky130_fd_sc_hd__tapvpwrvgnd_1
XTAP_1855 vssd1 vccd1 sky130_fd_sc_hd__tapvpwrvgnd_1
XFILLER_0_230_1453 vssd1 vssd1 vccd1 vccd1 sky130_fd_sc_hd__decap_8
XFILLER_0_138_533 vssd1 vssd1 vccd1 vccd1 sky130_ef_sc_hd__decap_12
XTAP_1866 vssd1 vccd1 sky130_fd_sc_hd__tapvpwrvgnd_1
XFILLER_0_83_615 vssd1 vssd1 vccd1 vccd1 sky130_fd_sc_hd__fill_1
XFILLER_0_3_1313 vssd1 vssd1 vccd1 vccd1 sky130_ef_sc_hd__decap_12
XFILLER_0_55_317 vssd1 vssd1 vccd1 vccd1 sky130_ef_sc_hd__decap_12
XFILLER_0_7_1493 vssd1 vssd1 vccd1 vccd1 sky130_fd_sc_hd__fill_1
XTAP_1877 vssd1 vccd1 sky130_fd_sc_hd__tapvpwrvgnd_1
XTAP_1888 vssd1 vccd1 sky130_fd_sc_hd__tapvpwrvgnd_1
XFILLER_0_95_497 vssd1 vssd1 vccd1 vccd1 sky130_fd_sc_hd__decap_6
XTAP_1899 vssd1 vccd1 sky130_fd_sc_hd__tapvpwrvgnd_1
XFILLER_0_153_503 vssd1 vssd1 vccd1 vccd1 sky130_fd_sc_hd__fill_1
XFILLER_0_125_205 vssd1 vssd1 vccd1 vccd1 sky130_ef_sc_hd__decap_12
XFILLER_0_3_1357 vssd1 vssd1 vccd1 vccd1 sky130_ef_sc_hd__decap_12
XFILLER_0_36_531 vssd1 vssd1 vccd1 vccd1 sky130_fd_sc_hd__fill_1
XFILLER_0_165_385 vssd1 vssd1 vccd1 vccd1 sky130_fd_sc_hd__decap_6
XFILLER_0_70_309 vssd1 vssd1 vccd1 vccd1 sky130_ef_sc_hd__decap_12
XFILLER_0_180_333 vssd1 vssd1 vccd1 vccd1 sky130_ef_sc_hd__decap_12
XFILLER_0_125_249 vssd1 vssd1 vccd1 vccd1 sky130_ef_sc_hd__decap_12
XFILLER_0_63_361 vssd1 vssd1 vccd1 vccd1 sky130_ef_sc_hd__decap_12
XFILLER_0_107_953 vssd1 vssd1 vccd1 vccd1 sky130_ef_sc_hd__decap_12
XFILLER_0_141_709 vssd1 vssd1 vccd1 vccd1 sky130_ef_sc_hd__decap_12
XFILLER_0_181_889 vssd1 vssd1 vccd1 vccd1 sky130_fd_sc_hd__decap_6
XFILLER_0_3_609 vssd1 vssd1 vccd1 vccd1 sky130_fd_sc_hd__decap_6
XFILLER_0_23_225 vssd1 vssd1 vccd1 vccd1 sky130_ef_sc_hd__decap_12
XFILLER_0_88_1493 vssd1 vssd1 vccd1 vccd1 sky130_fd_sc_hd__fill_1
XFILLER_0_180_377 vssd1 vssd1 vccd1 vccd1 sky130_ef_sc_hd__decap_12
XFILLER_0_49_1455 vssd1 vssd1 vccd1 vccd1 sky130_fd_sc_hd__fill_1
XANTENNA__0956__B1 _0759_/X vssd1 vssd1 vccd1 vccd1 sky130_fd_sc_hd__diode_2
XFILLER_0_228_1371 vssd1 vssd1 vccd1 vccd1 sky130_fd_sc_hd__fill_1
XFILLER_0_210_41 vssd1 vssd1 vccd1 vccd1 sky130_ef_sc_hd__decap_12
XFILLER_0_122_923 vssd1 vssd1 vccd1 vccd1 sky130_fd_sc_hd__fill_1
XFILLER_0_133_293 vssd1 vssd1 vccd1 vccd1 sky130_ef_sc_hd__decap_12
XFILLER_0_210_85 vssd1 vssd1 vccd1 vccd1 sky130_ef_sc_hd__decap_12
XFILLER_0_107_1033 vssd1 vssd1 vccd1 vccd1 sky130_ef_sc_hd__decap_12
XFILLER_0_146_1093 vssd1 vssd1 vccd1 vccd1 sky130_ef_sc_hd__decap_12
XFILLER_0_20_921 vssd1 vssd1 vccd1 vccd1 sky130_fd_sc_hd__decap_3
XFILLER_0_32_781 vssd1 vssd1 vccd1 vccd1 sky130_ef_sc_hd__decap_12
XFILLER_0_43_1021 vssd1 vssd1 vccd1 vccd1 sky130_ef_sc_hd__decap_12
XFILLER_0_107_1077 vssd1 vssd1 vccd1 vccd1 sky130_ef_sc_hd__decap_12
XFILLER_0_236_813 vssd1 vssd1 vccd1 vccd1 sky130_ef_sc_hd__decap_12
XFILLER_0_20_987 vssd1 vssd1 vccd1 vccd1 sky130_fd_sc_hd__fill_1
XFILLER_0_43_1065 vssd1 vssd1 vccd1 vccd1 sky130_ef_sc_hd__decap_12
XANTENNA_output346_A _1266_/Q vssd1 vssd1 vccd1 vccd1 sky130_fd_sc_hd__diode_2
XFILLER_0_247_161 vssd1 vssd1 vccd1 vccd1 sky130_fd_sc_hd__decap_6
XFILLER_0_177_1009 vssd1 vssd1 vccd1 vccd1 sky130_ef_sc_hd__decap_12
X_1270_ _1271_/CLK _1270_/D vssd1 vssd1 vccd1 vccd1 _1270_/Q sky130_fd_sc_hd__dfxtp_4
XFILLER_0_78_1117 vssd1 vssd1 vccd1 vccd1 sky130_ef_sc_hd__decap_12
XANTENNA__1254__CLK _1261_/CLK vssd1 vssd1 vccd1 vccd1 sky130_fd_sc_hd__diode_2
XFILLER_0_218_1017 vssd1 vssd1 vccd1 vccd1 sky130_ef_sc_hd__decap_12
XTAP_5160 vssd1 vccd1 sky130_fd_sc_hd__tapvpwrvgnd_1
XFILLER_0_3_39 vssd1 vssd1 vccd1 vccd1 sky130_ef_sc_hd__decap_12
XFILLER_0_223_529 vssd1 vssd1 vccd1 vccd1 sky130_ef_sc_hd__decap_12
XTAP_5171 vssd1 vccd1 sky130_fd_sc_hd__tapvpwrvgnd_1
XTAP_5182 vssd1 vccd1 sky130_fd_sc_hd__tapvpwrvgnd_1
XFILLER_0_216_581 vssd1 vssd1 vccd1 vccd1 sky130_fd_sc_hd__decap_6
XTAP_5193 vssd1 vccd1 sky130_fd_sc_hd__tapvpwrvgnd_1
XFILLER_0_189_945 vssd1 vssd1 vccd1 vccd1 sky130_fd_sc_hd__decap_6
XTAP_4470 vssd1 vccd1 sky130_fd_sc_hd__tapvpwrvgnd_1
XFILLER_0_188_433 vssd1 vssd1 vccd1 vccd1 sky130_ef_sc_hd__decap_12
XTAP_4481 vssd1 vccd1 sky130_fd_sc_hd__tapvpwrvgnd_1
XTAP_4492 vssd1 vccd1 sky130_fd_sc_hd__tapvpwrvgnd_1
XFILLER_0_149_809 vssd1 vssd1 vccd1 vccd1 sky130_ef_sc_hd__decap_12
XFILLER_0_87_921 vssd1 vssd1 vccd1 vccd1 sky130_ef_sc_hd__decap_12
XFILLER_0_231_573 vssd1 vssd1 vccd1 vccd1 sky130_ef_sc_hd__decap_12
XFILLER_0_192_1091 vssd1 vssd1 vccd1 vccd1 sky130_fd_sc_hd__fill_1
XFILLER_0_189_989 vssd1 vssd1 vccd1 vccd1 sky130_ef_sc_hd__decap_12
XFILLER_0_235_93 vssd1 vssd1 vccd1 vccd1 sky130_ef_sc_hd__decap_12