*SPEF "ieee 1481-1999"
*DESIGN "vco_adc_wrapper"
*DATE "11:11:11 Fri 11 11, 1111"
*VENDOR "OpenRCX"
*PROGRAM "Parallel Extraction"
*VERSION "1.0"
*DESIGN_FLOW "NAME_SCOPE LOCAL" "PIN_CAP NONE"
*DIVIDER /
*DELIMITER :
*BUS_DELIMITER []
*T_UNIT 1 NS
*C_UNIT 1 PF
*R_UNIT 1 OHM
*L_UNIT 1 HENRY

*NAME_MAP
*1 adc0_dat_i[0]
*2 adc0_dat_i[10]
*3 adc0_dat_i[11]
*4 adc0_dat_i[12]
*5 adc0_dat_i[13]
*6 adc0_dat_i[14]
*7 adc0_dat_i[15]
*8 adc0_dat_i[16]
*9 adc0_dat_i[17]
*10 adc0_dat_i[18]
*11 adc0_dat_i[19]
*12 adc0_dat_i[1]
*13 adc0_dat_i[20]
*14 adc0_dat_i[21]
*15 adc0_dat_i[22]
*16 adc0_dat_i[23]
*17 adc0_dat_i[24]
*18 adc0_dat_i[25]
*19 adc0_dat_i[26]
*20 adc0_dat_i[27]
*21 adc0_dat_i[28]
*22 adc0_dat_i[29]
*23 adc0_dat_i[2]
*24 adc0_dat_i[30]
*25 adc0_dat_i[31]
*26 adc0_dat_i[3]
*27 adc0_dat_i[4]
*28 adc0_dat_i[5]
*29 adc0_dat_i[6]
*30 adc0_dat_i[7]
*31 adc0_dat_i[8]
*32 adc0_dat_i[9]
*33 adc1_dat_i[0]
*34 adc1_dat_i[10]
*35 adc1_dat_i[11]
*36 adc1_dat_i[12]
*37 adc1_dat_i[13]
*38 adc1_dat_i[14]
*39 adc1_dat_i[15]
*40 adc1_dat_i[16]
*41 adc1_dat_i[17]
*42 adc1_dat_i[18]
*43 adc1_dat_i[19]
*44 adc1_dat_i[1]
*45 adc1_dat_i[20]
*46 adc1_dat_i[21]
*47 adc1_dat_i[22]
*48 adc1_dat_i[23]
*49 adc1_dat_i[24]
*50 adc1_dat_i[25]
*51 adc1_dat_i[26]
*52 adc1_dat_i[27]
*53 adc1_dat_i[28]
*54 adc1_dat_i[29]
*55 adc1_dat_i[2]
*56 adc1_dat_i[30]
*57 adc1_dat_i[31]
*58 adc1_dat_i[3]
*59 adc1_dat_i[4]
*60 adc1_dat_i[5]
*61 adc1_dat_i[6]
*62 adc1_dat_i[7]
*63 adc1_dat_i[8]
*64 adc1_dat_i[9]
*65 adc2_dat_i[0]
*66 adc2_dat_i[10]
*67 adc2_dat_i[11]
*68 adc2_dat_i[12]
*69 adc2_dat_i[13]
*70 adc2_dat_i[14]
*71 adc2_dat_i[15]
*72 adc2_dat_i[16]
*73 adc2_dat_i[17]
*74 adc2_dat_i[18]
*75 adc2_dat_i[19]
*76 adc2_dat_i[1]
*77 adc2_dat_i[20]
*78 adc2_dat_i[21]
*79 adc2_dat_i[22]
*80 adc2_dat_i[23]
*81 adc2_dat_i[24]
*82 adc2_dat_i[25]
*83 adc2_dat_i[26]
*84 adc2_dat_i[27]
*85 adc2_dat_i[28]
*86 adc2_dat_i[29]
*87 adc2_dat_i[2]
*88 adc2_dat_i[30]
*89 adc2_dat_i[31]
*90 adc2_dat_i[3]
*91 adc2_dat_i[4]
*92 adc2_dat_i[5]
*93 adc2_dat_i[6]
*94 adc2_dat_i[7]
*95 adc2_dat_i[8]
*96 adc2_dat_i[9]
*97 adc_dvalid_i[0]
*98 adc_dvalid_i[1]
*99 adc_dvalid_i[2]
*100 io_oeb[0]
*101 io_oeb[10]
*102 io_oeb[11]
*103 io_oeb[12]
*104 io_oeb[13]
*105 io_oeb[14]
*106 io_oeb[15]
*107 io_oeb[16]
*108 io_oeb[17]
*109 io_oeb[18]
*110 io_oeb[19]
*111 io_oeb[1]
*112 io_oeb[20]
*113 io_oeb[21]
*114 io_oeb[22]
*115 io_oeb[23]
*116 io_oeb[24]
*117 io_oeb[25]
*118 io_oeb[26]
*119 io_oeb[27]
*120 io_oeb[28]
*121 io_oeb[29]
*122 io_oeb[2]
*123 io_oeb[30]
*124 io_oeb[31]
*125 io_oeb[32]
*126 io_oeb[33]
*127 io_oeb[34]
*128 io_oeb[35]
*129 io_oeb[36]
*130 net783
*131 io_oeb[3]
*132 io_oeb[4]
*133 io_oeb[5]
*134 io_oeb[6]
*135 io_oeb[7]
*136 io_oeb[8]
*137 io_oeb[9]
*138 io_out[0]
*139 io_out[10]
*140 io_out[11]
*141 io_out[12]
*142 io_out[13]
*143 io_out[14]
*144 io_out[15]
*145 io_out[16]
*146 io_out[17]
*147 io_out[18]
*148 io_out[19]
*149 io_out[1]
*150 io_out[20]
*151 io_out[21]
*152 io_out[22]
*153 io_out[23]
*154 io_out[24]
*155 io_out[25]
*156 io_out[26]
*157 io_out[27]
*158 io_out[28]
*159 io_out[29]
*160 io_out[2]
*161 io_out[30]
*162 io_out[31]
*163 net784
*164 net785
*165 net786
*166 net787
*167 net788
*168 net789
*169 io_out[3]
*170 io_out[4]
*171 io_out[5]
*172 io_out[6]
*173 io_out[7]
*174 io_out[8]
*175 io_out[9]
*176 mem0_data_i[0]
*177 mem0_data_i[10]
*178 mem0_data_i[11]
*179 mem0_data_i[12]
*180 mem0_data_i[13]
*181 mem0_data_i[14]
*182 mem0_data_i[15]
*183 mem0_data_i[16]
*184 mem0_data_i[17]
*185 mem0_data_i[18]
*186 mem0_data_i[19]
*187 mem0_data_i[1]
*188 mem0_data_i[20]
*189 mem0_data_i[21]
*190 mem0_data_i[22]
*191 mem0_data_i[23]
*192 mem0_data_i[24]
*193 mem0_data_i[25]
*194 mem0_data_i[26]
*195 mem0_data_i[27]
*196 mem0_data_i[28]
*197 mem0_data_i[29]
*198 mem0_data_i[2]
*199 mem0_data_i[30]
*200 mem0_data_i[31]
*201 mem0_data_i[3]
*202 mem0_data_i[4]
*203 mem0_data_i[5]
*204 mem0_data_i[6]
*205 mem0_data_i[7]
*206 mem0_data_i[8]
*207 mem0_data_i[9]
*208 mem1_data_i[0]
*209 mem1_data_i[10]
*210 mem1_data_i[11]
*211 mem1_data_i[12]
*212 mem1_data_i[13]
*213 mem1_data_i[14]
*214 mem1_data_i[15]
*215 mem1_data_i[16]
*216 mem1_data_i[17]
*217 mem1_data_i[18]
*218 mem1_data_i[19]
*219 mem1_data_i[1]
*220 mem1_data_i[20]
*221 mem1_data_i[21]
*222 mem1_data_i[22]
*223 mem1_data_i[23]
*224 mem1_data_i[24]
*225 mem1_data_i[25]
*226 mem1_data_i[26]
*227 mem1_data_i[27]
*228 mem1_data_i[28]
*229 mem1_data_i[29]
*230 mem1_data_i[2]
*231 mem1_data_i[30]
*232 mem1_data_i[31]
*233 mem1_data_i[3]
*234 mem1_data_i[4]
*235 mem1_data_i[5]
*236 mem1_data_i[6]
*237 mem1_data_i[7]
*238 mem1_data_i[8]
*239 mem1_data_i[9]
*240 mem2_data_i[0]
*241 mem2_data_i[10]
*242 mem2_data_i[11]
*243 mem2_data_i[12]
*244 mem2_data_i[13]
*245 mem2_data_i[14]
*246 mem2_data_i[15]
*247 mem2_data_i[16]
*248 mem2_data_i[17]
*249 mem2_data_i[18]
*250 mem2_data_i[19]
*251 mem2_data_i[1]
*252 mem2_data_i[20]
*253 mem2_data_i[21]
*254 mem2_data_i[22]
*255 mem2_data_i[23]
*256 mem2_data_i[24]
*257 mem2_data_i[25]
*258 mem2_data_i[26]
*259 mem2_data_i[27]
*260 mem2_data_i[28]
*261 mem2_data_i[29]
*262 mem2_data_i[2]
*263 mem2_data_i[30]
*264 mem2_data_i[31]
*265 mem2_data_i[3]
*266 mem2_data_i[4]
*267 mem2_data_i[5]
*268 mem2_data_i[6]
*269 mem2_data_i[7]
*270 mem2_data_i[8]
*271 mem2_data_i[9]
*272 mem3_data_i[0]
*273 mem3_data_i[10]
*274 mem3_data_i[11]
*275 mem3_data_i[12]
*276 mem3_data_i[13]
*277 mem3_data_i[14]
*278 mem3_data_i[15]
*279 mem3_data_i[16]
*280 mem3_data_i[17]
*281 mem3_data_i[18]
*282 mem3_data_i[19]
*283 mem3_data_i[1]
*284 mem3_data_i[20]
*285 mem3_data_i[21]
*286 mem3_data_i[22]
*287 mem3_data_i[23]
*288 mem3_data_i[24]
*289 mem3_data_i[25]
*290 mem3_data_i[26]
*291 mem3_data_i[27]
*292 mem3_data_i[28]
*293 mem3_data_i[29]
*294 mem3_data_i[2]
*295 mem3_data_i[30]
*296 mem3_data_i[31]
*297 mem3_data_i[3]
*298 mem3_data_i[4]
*299 mem3_data_i[5]
*300 mem3_data_i[6]
*301 mem3_data_i[7]
*302 mem3_data_i[8]
*303 mem3_data_i[9]
*304 mem_data_o[0]
*305 mem_data_o[10]
*306 mem_data_o[11]
*307 mem_data_o[12]
*308 mem_data_o[13]
*309 mem_data_o[14]
*310 mem_data_o[15]
*311 mem_data_o[16]
*312 mem_data_o[17]
*313 mem_data_o[18]
*314 mem_data_o[19]
*315 mem_data_o[1]
*316 mem_data_o[20]
*317 mem_data_o[21]
*318 mem_data_o[22]
*319 mem_data_o[23]
*320 mem_data_o[24]
*321 mem_data_o[25]
*322 mem_data_o[26]
*323 mem_data_o[27]
*324 mem_data_o[28]
*325 mem_data_o[29]
*326 mem_data_o[2]
*327 mem_data_o[30]
*328 mem_data_o[31]
*329 mem_data_o[3]
*330 mem_data_o[4]
*331 mem_data_o[5]
*332 mem_data_o[6]
*333 mem_data_o[7]
*334 mem_data_o[8]
*335 mem_data_o[9]
*336 mem_raddr_o[0]
*337 mem_raddr_o[1]
*338 mem_raddr_o[2]
*339 mem_raddr_o[3]
*340 mem_raddr_o[4]
*341 mem_raddr_o[5]
*342 mem_raddr_o[6]
*343 mem_raddr_o[7]
*344 mem_raddr_o[8]
*345 mem_renb_o[0]
*346 mem_renb_o[1]
*347 mem_renb_o[2]
*348 mem_renb_o[3]
*349 mem_waddr_o[0]
*350 mem_waddr_o[1]
*351 mem_waddr_o[2]
*352 mem_waddr_o[3]
*353 mem_waddr_o[4]
*354 mem_waddr_o[5]
*355 mem_waddr_o[6]
*356 mem_waddr_o[7]
*357 mem_waddr_o[8]
*358 mem_wenb_o[0]
*359 mem_wenb_o[1]
*360 mem_wenb_o[2]
*361 mem_wenb_o[3]
*362 oversample_o[0]
*363 oversample_o[1]
*364 oversample_o[2]
*365 oversample_o[3]
*366 oversample_o[4]
*367 oversample_o[5]
*368 oversample_o[6]
*369 oversample_o[7]
*370 oversample_o[8]
*371 oversample_o[9]
*372 sinc3_en_o[0]
*373 sinc3_en_o[1]
*374 sinc3_en_o[2]
*376 vco_enb_o[0]
*377 vco_enb_o[1]
*378 vco_enb_o[2]
*380 wb_clk_i
*381 wb_rst_i
*382 wbs_ack_o
*383 wbs_adr_i[0]
*384 wbs_adr_i[10]
*385 wbs_adr_i[11]
*386 wbs_adr_i[12]
*387 wbs_adr_i[13]
*388 wbs_adr_i[14]
*389 wbs_adr_i[15]
*390 wbs_adr_i[16]
*391 wbs_adr_i[17]
*392 wbs_adr_i[18]
*393 wbs_adr_i[19]
*394 wbs_adr_i[1]
*395 wbs_adr_i[20]
*396 wbs_adr_i[21]
*397 wbs_adr_i[22]
*398 wbs_adr_i[23]
*399 wbs_adr_i[24]
*400 wbs_adr_i[25]
*401 wbs_adr_i[26]
*402 wbs_adr_i[27]
*403 wbs_adr_i[28]
*404 wbs_adr_i[29]
*405 wbs_adr_i[2]
*406 wbs_adr_i[30]
*407 wbs_adr_i[31]
*408 wbs_adr_i[3]
*409 wbs_adr_i[4]
*410 wbs_adr_i[5]
*411 wbs_adr_i[6]
*412 wbs_adr_i[7]
*413 wbs_adr_i[8]
*414 wbs_adr_i[9]
*415 wbs_cyc_i
*416 wbs_dat_i[0]
*417 wbs_dat_i[10]
*418 wbs_dat_i[11]
*419 wbs_dat_i[12]
*420 wbs_dat_i[13]
*421 wbs_dat_i[14]
*422 wbs_dat_i[15]
*423 wbs_dat_i[16]
*424 wbs_dat_i[17]
*425 wbs_dat_i[18]
*426 wbs_dat_i[19]
*427 wbs_dat_i[1]
*428 wbs_dat_i[20]
*429 wbs_dat_i[21]
*430 wbs_dat_i[22]
*431 wbs_dat_i[23]
*432 wbs_dat_i[24]
*433 wbs_dat_i[25]
*434 wbs_dat_i[26]
*435 wbs_dat_i[27]
*436 wbs_dat_i[28]
*437 wbs_dat_i[29]
*438 wbs_dat_i[2]
*439 wbs_dat_i[30]
*440 wbs_dat_i[31]
*441 wbs_dat_i[3]
*442 wbs_dat_i[4]
*443 wbs_dat_i[5]
*444 wbs_dat_i[6]
*445 wbs_dat_i[7]
*446 wbs_dat_i[8]
*447 wbs_dat_i[9]
*448 wbs_dat_o[0]
*449 wbs_dat_o[10]
*450 wbs_dat_o[11]
*451 wbs_dat_o[12]
*452 wbs_dat_o[13]
*453 wbs_dat_o[14]
*454 wbs_dat_o[15]
*455 wbs_dat_o[16]
*456 wbs_dat_o[17]
*457 wbs_dat_o[18]
*458 wbs_dat_o[19]
*459 wbs_dat_o[1]
*460 wbs_dat_o[20]
*461 wbs_dat_o[21]
*462 wbs_dat_o[22]
*463 wbs_dat_o[23]
*464 wbs_dat_o[24]
*465 wbs_dat_o[25]
*466 wbs_dat_o[26]
*467 wbs_dat_o[27]
*468 wbs_dat_o[28]
*469 wbs_dat_o[29]
*470 wbs_dat_o[2]
*471 wbs_dat_o[30]
*472 wbs_dat_o[31]
*473 wbs_dat_o[3]
*474 wbs_dat_o[4]
*475 wbs_dat_o[5]
*476 wbs_dat_o[6]
*477 wbs_dat_o[7]
*478 wbs_dat_o[8]
*479 wbs_dat_o[9]
*480 wbs_sel_i[0]
*481 wbs_sel_i[1]
*482 wbs_sel_i[2]
*483 wbs_sel_i[3]
*484 wbs_stb_i
*485 wbs_we_i
*486 net790
*487 net791
*488 net792
*489 net793
*490 _0000_
*491 _0001_
*492 _0002_
*493 _0003_
*494 _0004_
*495 _0005_
*496 _0006_
*497 _0007_
*498 _0008_
*499 _0009_
*500 _0010_
*501 _0011_
*502 _0012_
*503 _0013_
*504 _0014_
*505 _0015_
*506 _0016_
*507 _0017_
*508 _0018_
*509 _0019_
*510 _0020_
*511 _0021_
*512 _0022_
*513 _0023_
*514 _0024_
*515 _0025_
*516 _0026_
*517 _0027_
*518 _0028_
*519 _0029_
*520 _0030_
*521 _0031_
*522 _0032_
*523 _0033_
*524 _0034_
*525 _0035_
*526 _0036_
*527 _0037_
*528 _0038_
*529 _0039_
*530 _0040_
*531 _0041_
*532 _0042_
*533 _0043_
*534 _0044_
*535 _0045_
*536 _0046_
*537 _0047_
*538 _0048_
*539 _0049_
*540 _0050_
*541 _0051_
*542 _0052_
*543 _0053_
*544 _0054_
*545 _0055_
*546 _0056_
*547 _0057_
*548 _0058_
*549 _0059_
*550 _0060_
*551 _0061_
*552 _0062_
*553 _0063_
*554 _0064_
*555 _0065_
*556 _0066_
*557 _0067_
*558 _0068_
*559 _0069_
*560 _0070_
*561 _0071_
*562 _0072_
*563 _0073_
*564 _0074_
*565 _0075_
*566 _0076_
*567 _0077_
*568 _0078_
*569 _0079_
*570 _0080_
*571 _0081_
*572 _0082_
*573 _0083_
*574 _0084_
*575 _0085_
*576 _0086_
*577 _0087_
*578 _0088_
*579 _0089_
*580 _0090_
*581 _0091_
*582 _0092_
*583 _0093_
*584 _0094_
*585 _0095_
*586 _0096_
*587 _0097_
*588 _0098_
*589 _0099_
*590 _0100_
*591 _0101_
*592 _0102_
*593 _0103_
*594 _0104_
*595 _0105_
*596 _0106_
*597 _0107_
*598 _0108_
*599 _0109_
*600 _0110_
*601 _0111_
*602 _0112_
*603 _0113_
*604 _0114_
*605 _0115_
*606 _0116_
*607 _0117_
*608 _0118_
*609 _0119_
*610 _0120_
*611 _0121_
*612 _0122_
*613 _0123_
*614 _0124_
*615 _0125_
*616 _0126_
*617 _0127_
*618 _0128_
*619 _0129_
*620 _0130_
*621 _0131_
*622 _0132_
*623 _0133_
*624 _0134_
*625 _0135_
*626 _0136_
*627 _0137_
*628 _0138_
*629 _0139_
*630 _0140_
*631 _0141_
*632 _0142_
*633 _0143_
*634 _0144_
*635 _0145_
*636 _0146_
*637 _0147_
*638 _0148_
*639 _0149_
*640 _0150_
*641 _0151_
*642 _0152_
*643 _0153_
*644 _0154_
*645 _0155_
*646 _0156_
*647 _0157_
*648 _0158_
*649 _0159_
*650 _0160_
*651 _0161_
*652 _0162_
*653 _0163_
*654 _0164_
*655 _0165_
*656 _0166_
*657 _0167_
*658 _0168_
*659 _0169_
*660 _0170_
*661 _0171_
*662 _0172_
*663 _0173_
*664 _0174_
*665 _0175_
*666 _0176_
*667 _0177_
*668 _0178_
*669 _0179_
*670 _0180_
*671 _0181_
*672 _0182_
*673 _0183_
*674 _0184_
*675 _0185_
*676 _0186_
*677 _0187_
*678 _0188_
*679 _0189_
*680 _0190_
*681 _0191_
*682 _0192_
*683 _0193_
*684 _0194_
*685 _0195_
*686 _0196_
*687 _0197_
*688 _0198_
*689 _0199_
*690 _0200_
*691 _0201_
*692 _0202_
*693 _0203_
*694 _0204_
*695 _0205_
*696 _0206_
*697 _0207_
*698 _0208_
*699 _0209_
*700 _0210_
*701 _0211_
*702 _0212_
*703 _0213_
*704 _0214_
*705 _0215_
*706 _0216_
*707 _0217_
*708 _0218_
*709 _0219_
*710 _0220_
*711 _0221_
*712 _0222_
*713 _0223_
*714 _0224_
*715 _0225_
*716 _0226_
*717 _0227_
*718 _0228_
*719 _0229_
*720 _0230_
*721 _0231_
*722 _0232_
*723 _0233_
*724 _0234_
*725 _0235_
*726 _0236_
*727 _0237_
*728 _0238_
*729 _0239_
*730 _0240_
*731 _0241_
*732 _0242_
*733 _0243_
*734 _0244_
*735 _0245_
*736 _0246_
*737 _0247_
*738 _0248_
*739 _0249_
*740 _0250_
*741 _0251_
*742 _0252_
*743 _0253_
*744 _0254_
*745 _0255_
*746 _0256_
*747 _0257_
*748 _0258_
*749 _0259_
*750 _0260_
*751 _0261_
*752 _0262_
*753 _0263_
*754 _0264_
*755 _0265_
*756 _0266_
*757 _0267_
*758 _0268_
*759 _0269_
*760 _0270_
*761 _0271_
*762 _0272_
*763 _0273_
*764 _0274_
*765 _0275_
*766 _0276_
*767 _0277_
*768 _0278_
*769 _0279_
*770 _0280_
*771 _0281_
*772 _0282_
*773 _0283_
*774 _0284_
*775 _0285_
*776 _0286_
*777 _0287_
*778 _0288_
*779 _0289_
*780 _0290_
*781 _0291_
*782 _0292_
*783 _0293_
*784 _0294_
*785 _0295_
*786 _0296_
*787 _0297_
*788 _0298_
*789 _0299_
*790 _0300_
*791 _0301_
*792 _0302_
*793 _0303_
*794 _0304_
*795 _0305_
*796 _0306_
*797 _0307_
*798 _0308_
*799 _0309_
*800 _0310_
*801 _0311_
*802 _0312_
*803 _0313_
*804 _0314_
*805 _0315_
*806 _0316_
*807 _0317_
*808 _0318_
*809 _0319_
*810 _0320_
*811 _0321_
*812 _0322_
*813 _0323_
*814 _0324_
*815 _0325_
*816 _0326_
*817 _0327_
*818 _0328_
*819 _0329_
*820 _0330_
*821 _0331_
*822 _0332_
*823 _0333_
*824 _0334_
*825 _0335_
*826 _0336_
*827 _0337_
*828 _0338_
*829 _0339_
*830 _0340_
*831 _0341_
*832 _0342_
*833 _0343_
*834 _0344_
*835 _0345_
*836 _0346_
*837 _0347_
*838 _0348_
*839 _0349_
*840 _0350_
*841 _0351_
*842 _0352_
*843 _0353_
*844 _0354_
*845 _0355_
*846 _0356_
*847 _0357_
*848 _0358_
*849 _0359_
*850 _0360_
*851 _0361_
*852 _0362_
*853 _0363_
*854 _0364_
*855 _0365_
*856 _0366_
*857 _0367_
*858 _0368_
*859 _0369_
*860 _0370_
*861 _0371_
*862 _0372_
*863 _0373_
*864 _0374_
*865 _0375_
*866 _0376_
*867 _0377_
*868 _0378_
*869 _0379_
*870 _0380_
*871 _0381_
*872 _0382_
*873 _0383_
*874 _0384_
*875 _0385_
*876 _0386_
*877 _0387_
*878 _0388_
*879 _0389_
*880 _0390_
*881 _0391_
*882 _0392_
*883 _0393_
*884 _0394_
*885 _0395_
*886 _0396_
*887 _0397_
*888 _0398_
*889 _0399_
*890 _0400_
*891 _0401_
*892 _0402_
*893 _0403_
*894 _0404_
*895 _0405_
*896 _0406_
*897 _0407_
*898 _0408_
*899 _0409_
*900 _0410_
*901 _0411_
*902 _0412_
*903 _0413_
*904 _0414_
*905 _0415_
*906 _0416_
*907 _0417_
*908 _0418_
*909 _0419_
*910 _0420_
*911 _0421_
*912 _0422_
*913 _0423_
*914 _0424_
*915 _0425_
*916 _0426_
*917 _0427_
*918 _0428_
*919 _0429_
*920 _0430_
*921 _0431_
*922 _0432_
*923 _0433_
*924 _0434_
*925 _0435_
*926 _0436_
*927 _0437_
*928 _0438_
*929 _0439_
*930 _0440_
*931 _0441_
*932 _0442_
*933 _0443_
*934 _0444_
*935 _0445_
*936 _0446_
*937 _0447_
*938 _0448_
*939 _0449_
*940 _0450_
*941 _0451_
*942 _0452_
*943 _0453_
*944 _0454_
*945 _0455_
*946 _0456_
*947 _0457_
*948 _0458_
*949 _0459_
*950 _0460_
*951 _0461_
*952 _0462_
*953 _0463_
*954 _0464_
*955 _0465_
*956 _0466_
*957 _0467_
*958 _0468_
*959 _0469_
*960 _0470_
*961 _0471_
*962 _0472_
*963 _0473_
*964 _0474_
*965 _0475_
*966 _0476_
*967 _0477_
*968 _0478_
*969 _0479_
*970 _0480_
*971 _0481_
*972 _0482_
*973 _0483_
*974 _0484_
*975 _0485_
*976 _0486_
*977 _0487_
*978 _0488_
*979 _0489_
*980 _0490_
*981 _0491_
*982 _0492_
*983 _0493_
*984 _0494_
*985 _0495_
*986 _0496_
*987 _0497_
*988 _0498_
*989 _0499_
*990 _0500_
*991 _0501_
*992 _0502_
*993 _0503_
*994 _0504_
*995 _0505_
*996 _0506_
*997 _0507_
*998 _0508_
*999 _0509_
*1000 _0510_
*1001 _0511_
*1002 _0512_
*1003 _0513_
*1004 _0514_
*1005 _0515_
*1006 _0516_
*1007 _0517_
*1008 _0518_
*1009 _0519_
*1010 _0520_
*1011 _0521_
*1012 _0522_
*1013 _0523_
*1014 _0524_
*1015 _0525_
*1016 _0526_
*1017 _0527_
*1018 _0528_
*1019 _0529_
*1020 _0530_
*1021 _0531_
*1022 _0532_
*1023 _0533_
*1024 _0534_
*1025 _0535_
*1026 adc_dvalid_1d_reg
*1027 adc_dvalid_2d_reg
*1028 adc_sel_reg\[0\]
*1029 adc_sel_reg\[1\]
*1030 clear_rptr_reg
*1031 clear_wptr_reg
*1032 clknet_0_wb_clk_i
*1033 clknet_2_0_0_wb_clk_i
*1034 clknet_2_1_0_wb_clk_i
*1035 clknet_2_2_0_wb_clk_i
*1036 clknet_2_3_0_wb_clk_i
*1037 clknet_4_0__leaf_wb_clk_i
*1038 clknet_4_10__leaf_wb_clk_i
*1039 clknet_4_11__leaf_wb_clk_i
*1040 clknet_4_12__leaf_wb_clk_i
*1041 clknet_4_13__leaf_wb_clk_i
*1042 clknet_4_14__leaf_wb_clk_i
*1043 clknet_4_15__leaf_wb_clk_i
*1044 clknet_4_1__leaf_wb_clk_i
*1045 clknet_4_2__leaf_wb_clk_i
*1046 clknet_4_3__leaf_wb_clk_i
*1047 clknet_4_4__leaf_wb_clk_i
*1048 clknet_4_5__leaf_wb_clk_i
*1049 clknet_4_6__leaf_wb_clk_i
*1050 clknet_4_7__leaf_wb_clk_i
*1051 clknet_4_8__leaf_wb_clk_i
*1052 clknet_4_9__leaf_wb_clk_i
*1053 empty_1d_reg
*1054 empty_reg
*1055 first_read_1d_reg
*1056 first_read_reg
*1057 full_1d_reg
*1058 full_reg
*1059 io_en_reg
*1060 net1
*1061 net10
*1062 net100
*1063 net101
*1064 net102
*1065 net103
*1066 net104
*1067 net105
*1068 net106
*1069 net107
*1070 net108
*1071 net109
*1072 net11
*1073 net110
*1074 net111
*1075 net112
*1076 net113
*1077 net114
*1078 net115
*1079 net116
*1080 net117
*1081 net118
*1082 net119
*1083 net12
*1084 net120
*1085 net121
*1086 net122
*1087 net123
*1088 net124
*1089 net125
*1090 net126
*1091 net127
*1092 net128
*1093 net129
*1094 net13
*1095 net130
*1096 net131
*1097 net132
*1098 net133
*1099 net134
*1100 net135
*1101 net136
*1102 net137
*1103 net138
*1104 net139
*1105 net14
*1106 net140
*1107 net141
*1108 net142
*1109 net143
*1110 net144
*1111 net145
*1112 net146
*1113 net147
*1114 net148
*1115 net149
*1116 net15
*1117 net150
*1118 net151
*1119 net152
*1120 net153
*1121 net154
*1122 net155
*1123 net156
*1124 net157
*1125 net158
*1126 net159
*1127 net16
*1128 net160
*1129 net161
*1130 net162
*1131 net163
*1132 net164
*1133 net165
*1134 net166
*1135 net167
*1136 net168
*1137 net169
*1138 net17
*1139 net170
*1140 net171
*1141 net172
*1142 net173
*1143 net174
*1144 net175
*1145 net176
*1146 net177
*1147 net178
*1148 net179
*1149 net18
*1150 net180
*1151 net181
*1152 net182
*1153 net183
*1154 net184
*1155 net185
*1156 net186
*1157 net187
*1158 net188
*1159 net189
*1160 net19
*1161 net190
*1162 net191
*1163 net192
*1164 net193
*1165 net194
*1166 net195
*1167 net196
*1168 net197
*1169 net198
*1170 net199
*1171 net2
*1172 net20
*1173 net200
*1174 net201
*1175 net202
*1176 net203
*1177 net204
*1178 net205
*1179 net206
*1180 net207
*1181 net208
*1182 net209
*1183 net21
*1184 net210
*1185 net211
*1186 net212
*1187 net213
*1188 net214
*1189 net215
*1190 net216
*1191 net217
*1192 net218
*1193 net219
*1194 net22
*1195 net220
*1196 net221
*1197 net222
*1198 net223
*1199 net224
*1200 net225
*1201 net226
*1202 net227
*1203 net228
*1204 net229
*1205 net23
*1206 net230
*1207 net231
*1208 net232
*1209 net233
*1210 net234
*1211 net235
*1212 net236
*1213 net237
*1214 net238
*1215 net239
*1216 net24
*1217 net240
*1218 net241
*1219 net242
*1220 net243
*1221 net244
*1222 net245
*1223 net246
*1224 net247
*1225 net248
*1226 net249
*1227 net25
*1228 net250
*1229 net251
*1230 net252
*1231 net253
*1232 net254
*1233 net255
*1234 net256
*1235 net257
*1236 net258
*1237 net259
*1238 net26
*1239 net260
*1240 net261
*1241 net262
*1242 net263
*1243 net264
*1244 net265
*1245 net266
*1246 net267
*1247 net268
*1248 net269
*1249 net27
*1250 net270
*1251 net271
*1252 net272
*1253 net273
*1254 net274
*1255 net275
*1256 net276
*1257 net277
*1258 net278
*1259 net279
*1260 net28
*1261 net280
*1262 net281
*1263 net282
*1264 net283
*1265 net284
*1266 net285
*1267 net286
*1268 net287
*1269 net288
*1270 net289
*1271 net29
*1272 net290
*1273 net291
*1274 net292
*1275 net293
*1276 net294
*1277 net295
*1278 net296
*1279 net297
*1280 net298
*1281 net299
*1282 net3
*1283 net30
*1284 net300
*1285 net301
*1286 net302
*1287 net303
*1288 net304
*1289 net305
*1290 net306
*1291 net307
*1292 net308
*1293 net309
*1294 net31
*1295 net310
*1296 net311
*1297 net312
*1298 net313
*1299 net314
*1300 net315
*1301 net316
*1302 net317
*1303 net318
*1304 net319
*1305 net32
*1306 net320
*1307 net321
*1308 net322
*1309 net323
*1310 net324
*1311 net325
*1312 net326
*1313 net327
*1314 net328
*1315 net329
*1316 net33
*1317 net330
*1318 net331
*1319 net332
*1320 net333
*1321 net334
*1322 net335
*1323 net336
*1324 net337
*1325 net338
*1326 net339
*1327 net34
*1328 net340
*1329 net341
*1330 net342
*1331 net343
*1332 net344
*1333 net345
*1334 net346
*1335 net347
*1336 net348
*1337 net349
*1338 net35
*1339 net350
*1340 net351
*1341 net352
*1342 net353
*1343 net354
*1344 net355
*1345 net356
*1346 net357
*1347 net358
*1348 net359
*1349 net36
*1350 net360
*1351 net361
*1352 net362
*1353 net363
*1354 net364
*1355 net365
*1356 net366
*1357 net367
*1358 net368
*1359 net369
*1360 net37
*1361 net370
*1362 net371
*1363 net372
*1364 net373
*1365 net374
*1366 net375
*1367 net376
*1368 net377
*1369 net378
*1370 net379
*1371 net38
*1372 net380
*1373 net381
*1374 net382
*1375 net383
*1376 net384
*1377 net385
*1378 net386
*1379 net387
*1380 net388
*1381 net389
*1382 net39
*1383 net390
*1384 net391
*1385 net392
*1386 net393
*1387 net394
*1388 net395
*1389 net396
*1390 net397
*1391 net398
*1392 net399
*1393 net4
*1394 net40
*1395 net400
*1396 net401
*1397 net402
*1398 net403
*1399 net404
*1400 net405
*1401 net406
*1402 net407
*1403 net408
*1404 net409
*1405 net41
*1406 net410
*1407 net411
*1408 net412
*1409 net413
*1410 net414
*1411 net415
*1412 net416
*1413 net417
*1414 net418
*1415 net419
*1416 net42
*1417 net420
*1418 net421
*1419 net422
*1420 net423
*1421 net424
*1422 net425
*1423 net426
*1424 net427
*1425 net428
*1426 net429
*1427 net43
*1428 net430
*1429 net431
*1430 net432
*1431 net433
*1432 net434
*1433 net435
*1434 net436
*1435 net437
*1436 net438
*1437 net439
*1438 net44
*1439 net440
*1440 net441
*1441 net442
*1442 net443
*1443 net444
*1444 net445
*1445 net446
*1446 net447
*1447 net448
*1448 net449
*1449 net45
*1450 net450
*1451 net451
*1452 net452
*1453 net453
*1454 net454
*1455 net455
*1456 net456
*1457 net457
*1458 net458
*1459 net459
*1460 net46
*1461 net460
*1462 net461
*1463 net462
*1464 net463
*1465 net464
*1466 net465
*1467 net466
*1468 net467
*1469 net468
*1470 net469
*1471 net47
*1472 net470
*1473 net471
*1474 net472
*1475 net473
*1476 net474
*1477 net475
*1478 net476
*1479 net477
*1480 net478
*1481 net479
*1482 net48
*1483 net480
*1484 net481
*1485 net482
*1486 net483
*1487 net484
*1488 net485
*1489 net486
*1490 net487
*1491 net488
*1492 net489
*1493 net49
*1494 net490
*1495 net491
*1496 net492
*1497 net493
*1498 net494
*1499 net495
*1500 net496
*1501 net497
*1502 net498
*1503 net499
*1504 net5
*1505 net50
*1506 net500
*1507 net501
*1508 net502
*1509 net503
*1510 net504
*1511 net505
*1512 net506
*1513 net507
*1514 net508
*1515 net509
*1516 net51
*1517 net510
*1518 net511
*1519 net512
*1520 net513
*1521 net514
*1522 net515
*1523 net516
*1524 net517
*1525 net518
*1526 net519
*1527 net52
*1528 net520
*1529 net521
*1530 net522
*1531 net523
*1532 net524
*1533 net525
*1534 net526
*1535 net527
*1536 net528
*1537 net529
*1538 net53
*1539 net530
*1540 net531
*1541 net532
*1542 net533
*1543 net534
*1544 net535
*1545 net536
*1546 net537
*1547 net538
*1548 net539
*1549 net54
*1550 net540
*1551 net541
*1552 net542
*1553 net543
*1554 net544
*1555 net545
*1556 net546
*1557 net547
*1558 net548
*1559 net549
*1560 net55
*1561 net550
*1562 net551
*1563 net552
*1564 net553
*1565 net554
*1566 net555
*1567 net556
*1568 net557
*1569 net558
*1570 net559
*1571 net56
*1572 net560
*1573 net561
*1574 net562
*1575 net563
*1576 net564
*1577 net565
*1578 net566
*1579 net567
*1580 net568
*1581 net569
*1582 net57
*1583 net570
*1584 net571
*1585 net572
*1586 net573
*1587 net574
*1588 net575
*1589 net576
*1590 net577
*1591 net578
*1592 net579
*1593 net58
*1594 net580
*1595 net581
*1596 net582
*1597 net583
*1598 net584
*1599 net585
*1600 net586
*1601 net587
*1602 net588
*1603 net589
*1604 net59
*1605 net590
*1606 net591
*1607 net592
*1608 net593
*1609 net594
*1610 net595
*1611 net596
*1612 net597
*1613 net598
*1614 net599
*1615 net6
*1616 net60
*1617 net600
*1618 net601
*1619 net602
*1620 net603
*1621 net604
*1622 net605
*1623 net606
*1624 net607
*1625 net608
*1626 net609
*1627 net61
*1628 net610
*1629 net611
*1630 net612
*1631 net613
*1632 net614
*1633 net615
*1634 net616
*1635 net617
*1636 net618
*1637 net619
*1638 net62
*1639 net620
*1640 net621
*1641 net622
*1642 net623
*1643 net624
*1644 net625
*1645 net626
*1646 net627
*1647 net628
*1648 net629
*1649 net63
*1650 net630
*1651 net631
*1652 net632
*1653 net633
*1654 net634
*1655 net635
*1656 net636
*1657 net637
*1658 net638
*1659 net639
*1660 net64
*1661 net640
*1662 net641
*1663 net642
*1664 net643
*1665 net644
*1666 net645
*1667 net646
*1668 net647
*1669 net648
*1670 net649
*1671 net65
*1672 net650
*1673 net651
*1674 net652
*1675 net653
*1676 net654
*1677 net655
*1678 net656
*1679 net657
*1680 net658
*1681 net659
*1682 net66
*1683 net660
*1684 net661
*1685 net662
*1686 net663
*1687 net664
*1688 net665
*1689 net666
*1690 net667
*1691 net668
*1692 net669
*1693 net67
*1694 net670
*1695 net671
*1696 net672
*1697 net673
*1698 net674
*1699 net675
*1700 net676
*1701 net677
*1702 net678
*1703 net679
*1704 net68
*1705 net680
*1706 net681
*1707 net682
*1708 net683
*1709 net684
*1710 net685
*1711 net686
*1712 net687
*1713 net688
*1714 net689
*1715 net69
*1716 net690
*1717 net691
*1718 net692
*1719 net693
*1720 net694
*1721 net695
*1722 net696
*1723 net697
*1724 net698
*1725 net699
*1726 net7
*1727 net70
*1728 net700
*1729 net701
*1730 net702
*1731 net703
*1732 net704
*1733 net705
*1734 net706
*1735 net707
*1736 net708
*1737 net709
*1738 net71
*1739 net710
*1740 net711
*1741 net712
*1742 net713
*1743 net714
*1744 net715
*1745 net716
*1746 net717
*1747 net718
*1748 net719
*1749 net72
*1750 net720
*1751 net721
*1752 net722
*1753 net723
*1754 net724
*1755 net725
*1756 net726
*1757 net727
*1758 net728
*1759 net729
*1760 net73
*1761 net730
*1762 net731
*1763 net732
*1764 net733
*1765 net734
*1766 net735
*1767 net736
*1768 net737
*1769 net738
*1770 net739
*1771 net74
*1772 net740
*1773 net741
*1774 net742
*1775 net743
*1776 net744
*1777 net745
*1778 net746
*1779 net747
*1780 net748
*1781 net749
*1782 net75
*1783 net750
*1784 net751
*1785 net752
*1786 net753
*1787 net754
*1788 net755
*1789 net756
*1790 net757
*1791 net758
*1792 net759
*1793 net76
*1794 net760
*1795 net761
*1796 net762
*1797 net763
*1798 net764
*1799 net765
*1800 net766
*1801 net767
*1802 net768
*1803 net769
*1804 net77
*1805 net770
*1806 net771
*1807 net772
*1808 net773
*1809 net774
*1810 net775
*1811 net776
*1812 net777
*1813 net778
*1814 net779
*1815 net78
*1816 net780
*1817 net781
*1818 net782
*1819 net79
*1820 net794
*1821 net795
*1822 net796
*1823 net797
*1824 net798
*1825 net799
*1826 net8
*1827 net80
*1828 net800
*1829 net801
*1830 net802
*1831 net803
*1832 net804
*1833 net805
*1834 net806
*1835 net807
*1836 net808
*1837 net809
*1838 net81
*1839 net810
*1840 net811
*1841 net812
*1842 net813
*1843 net814
*1844 net815
*1845 net816
*1846 net817
*1847 net818
*1848 net819
*1849 net82
*1850 net820
*1851 net821
*1852 net822
*1853 net823
*1854 net824
*1855 net825
*1856 net826
*1857 net827
*1858 net828
*1859 net829
*1860 net83
*1861 net830
*1862 net831
*1863 net832
*1864 net833
*1865 net834
*1866 net835
*1867 net836
*1868 net837
*1869 net838
*1870 net839
*1871 net84
*1872 net840
*1873 net841
*1874 net842
*1875 net843
*1876 net844
*1877 net845
*1878 net846
*1879 net847
*1880 net848
*1881 net849
*1882 net85
*1883 net850
*1884 net851
*1885 net852
*1886 net853
*1887 net854
*1888 net855
*1889 net856
*1890 net857
*1891 net86
*1892 net87
*1893 net88
*1894 net89
*1895 net9
*1896 net90
*1897 net91
*1898 net92
*1899 net93
*1900 net94
*1901 net95
*1902 net96
*1903 net97
*1904 net98
*1905 net99
*1906 num_data_reg\[0\]
*1907 num_data_reg\[10\]
*1908 num_data_reg\[11\]
*1909 num_data_reg\[12\]
*1910 num_data_reg\[13\]
*1911 num_data_reg\[14\]
*1912 num_data_reg\[15\]
*1913 num_data_reg\[16\]
*1914 num_data_reg\[17\]
*1915 num_data_reg\[18\]
*1916 num_data_reg\[19\]
*1917 num_data_reg\[1\]
*1918 num_data_reg\[20\]
*1919 num_data_reg\[21\]
*1920 num_data_reg\[22\]
*1921 num_data_reg\[23\]
*1922 num_data_reg\[24\]
*1923 num_data_reg\[25\]
*1924 num_data_reg\[26\]
*1925 num_data_reg\[27\]
*1926 num_data_reg\[28\]
*1927 num_data_reg\[29\]
*1928 num_data_reg\[2\]
*1929 num_data_reg\[30\]
*1930 num_data_reg\[31\]
*1931 num_data_reg\[3\]
*1932 num_data_reg\[4\]
*1933 num_data_reg\[5\]
*1934 num_data_reg\[6\]
*1935 num_data_reg\[7\]
*1936 num_data_reg\[8\]
*1937 num_data_reg\[9\]
*1938 num_samples_reg\[0\]
*1939 num_samples_reg\[10\]
*1940 num_samples_reg\[1\]
*1941 num_samples_reg\[2\]
*1942 num_samples_reg\[3\]
*1943 num_samples_reg\[4\]
*1944 num_samples_reg\[5\]
*1945 num_samples_reg\[6\]
*1946 num_samples_reg\[7\]
*1947 num_samples_reg\[8\]
*1948 num_samples_reg\[9\]
*1949 ren_1d_reg
*1950 ren_2d_reg
*1951 ren_3d_reg
*1952 ren_reg
*1953 rptr_reg\[10\]
*1954 rptr_reg\[9\]
*1955 status_reg\[0\]
*1956 status_reg\[1\]
*1957 vco_en_reg\[0\]
*1958 vco_en_reg\[1\]
*1959 vco_en_reg\[2\]
*1960 wbs_ack_reg
*1961 wptr_reg\[10\]
*1962 wptr_reg\[9\]
*1963 ANTENNA_1
*1964 ANTENNA_10
*1965 ANTENNA_11
*1966 ANTENNA_12
*1967 ANTENNA_13
*1968 ANTENNA_14
*1969 ANTENNA_15
*1970 ANTENNA_16
*1971 ANTENNA_17
*1972 ANTENNA_18
*1973 ANTENNA_19
*1974 ANTENNA_2
*1975 ANTENNA_20
*1976 ANTENNA_21
*1977 ANTENNA_22
*1978 ANTENNA_23
*1979 ANTENNA_24
*1980 ANTENNA_25
*1981 ANTENNA_26
*1982 ANTENNA_27
*1983 ANTENNA_28
*1984 ANTENNA_29
*1985 ANTENNA_3
*1986 ANTENNA_30
*1987 ANTENNA_31
*1988 ANTENNA_32
*1989 ANTENNA_33
*1990 ANTENNA_34
*1991 ANTENNA_35
*1992 ANTENNA_36
*1993 ANTENNA_37
*1994 ANTENNA_38
*1995 ANTENNA_39
*1996 ANTENNA_4
*1997 ANTENNA_40
*1998 ANTENNA_41
*1999 ANTENNA_42
*2000 ANTENNA_43
*2001 ANTENNA_44
*2002 ANTENNA_45
*2003 ANTENNA_46
*2004 ANTENNA_47
*2005 ANTENNA_48
*2006 ANTENNA_49
*2007 ANTENNA_5
*2008 ANTENNA_50
*2009 ANTENNA_51
*2010 ANTENNA_52
*2011 ANTENNA_53
*2012 ANTENNA_54
*2013 ANTENNA_55
*2014 ANTENNA_56
*2015 ANTENNA_57
*2016 ANTENNA_58
*2017 ANTENNA_59