*SPEF "ieee 1481-1999"
*DESIGN "vco_adc"
*DATE "11:11:11 Fri 11 11, 1111"
*VENDOR "OpenRCX"
*PROGRAM "Parallel Extraction"
*VERSION "1.0"
*DESIGN_FLOW "NAME_SCOPE LOCAL" "PIN_CAP NONE"
*DIVIDER /
*DELIMITER :
*BUS_DELIMITER []
*T_UNIT 1 NS
*C_UNIT 1 PF
*R_UNIT 1 OHM
*L_UNIT 1 HENRY

*NAME_MAP
*1 clk
*2 data_out[0]
*3 data_out[10]
*4 data_out[11]
*5 data_out[12]
*6 data_out[13]
*7 data_out[14]
*8 data_out[15]
*9 data_out[16]
*10 data_out[17]
*11 data_out[18]
*12 data_out[19]
*13 data_out[1]
*14 data_out[20]
*15 data_out[21]
*16 data_out[22]
*17 data_out[23]
*18 data_out[24]
*19 data_out[25]
*20 data_out[26]
*21 data_out[27]
*22 data_out[28]
*23 data_out[29]
*24 data_out[2]
*25 data_out[30]
*26 data_out[31]
*27 data_out[3]
*28 data_out[4]
*29 data_out[5]
*30 data_out[6]
*31 data_out[7]
*32 data_out[8]
*33 data_out[9]
*34 data_valid_out
*35 enable_in
*36 oversample_in[0]
*37 oversample_in[1]
*38 oversample_in[2]
*39 oversample_in[3]
*40 oversample_in[4]
*41 oversample_in[5]
*42 oversample_in[6]
*43 oversample_in[7]
*44 oversample_in[8]
*45 oversample_in[9]
*46 phase_in[0]
*47 phase_in[10]
*48 phase_in[1]
*49 phase_in[2]
*50 phase_in[3]
*51 phase_in[4]
*52 phase_in[5]
*53 phase_in[6]
*54 phase_in[7]
*55 phase_in[8]
*56 phase_in[9]
*57 rst
*60 _0000_
*61 _0001_
*62 _0002_
*63 _0003_
*64 _0004_
*65 _0005_
*66 _0006_
*67 _0007_
*68 _0008_
*69 _0009_
*70 _0010_
*71 _0011_
*72 _0012_
*73 _0013_
*74 _0014_
*75 _0015_
*76 _0016_
*77 _0017_
*78 _0018_
*79 _0019_
*80 _0020_
*81 _0021_
*82 _0022_
*83 _0023_
*84 _0024_
*85 _0025_
*86 _0026_
*87 _0027_
*88 _0028_
*89 _0029_
*90 _0030_
*91 _0031_
*92 _0032_
*93 _0033_
*94 _0034_
*95 _0035_
*96 _0036_
*97 _0037_
*98 _0038_
*99 _0039_
*100 _0040_
*101 _0041_
*102 _0042_
*103 _0043_
*104 _0044_
*105 _0045_
*106 _0046_
*107 _0047_
*108 _0048_
*109 _0049_
*110 _0050_
*111 _0051_
*112 _0052_
*113 _0053_
*114 _0054_
*115 _0055_
*116 _0056_
*117 _0057_
*118 _0058_
*119 _0059_
*120 _0060_
*121 _0061_
*122 _0062_
*123 _0063_
*124 _0064_
*125 _0065_
*126 _0066_
*127 _0067_
*128 _0068_
*129 _0069_
*130 _0070_
*131 _0071_
*132 _0072_
*133 _0073_
*134 _0074_
*135 _0075_
*136 _0076_
*137 _0077_
*138 _0078_
*139 _0079_
*140 _0080_
*141 _0081_
*142 _0082_
*143 _0083_
*144 _0084_
*145 _0085_
*146 _0086_
*147 _0087_
*148 _0088_
*149 _0089_
*150 _0090_
*151 _0091_
*152 _0092_
*153 _0093_
*154 _0094_
*155 _0095_
*156 _0096_
*157 _0097_
*158 _0098_
*159 _0099_
*160 _0100_
*161 _0101_
*162 _0102_
*163 _0103_
*164 _0104_
*165 _0105_
*166 _0106_
*167 _0107_
*168 _0108_
*169 _0109_
*170 _0110_
*171 _0111_
*172 _0112_
*173 _0113_
*174 _0114_
*175 _0115_
*176 _0116_
*177 _0117_
*178 _0118_
*179 _0119_
*180 _0120_
*181 _0121_
*182 _0122_
*183 _0123_
*184 _0124_
*185 _0125_
*186 _0126_
*187 _0127_
*188 _0128_
*189 _0129_
*190 _0130_
*191 _0131_
*192 _0132_
*193 _0133_
*194 _0134_
*195 _0135_
*196 _0136_
*197 _0137_
*198 _0138_
*199 _0139_
*200 _0140_
*201 _0141_
*202 _0142_
*203 _0143_
*204 _0144_
*205 _0145_
*206 _0146_
*207 _0147_
*208 _0148_
*209 _0149_
*210 _0150_
*211 _0151_
*212 _0152_
*213 _0153_
*214 _0154_
*215 _0155_
*216 _0156_
*217 _0157_
*218 _0158_
*219 _0159_
*220 _0160_
*221 _0161_
*222 _0162_
*223 _0163_
*224 _0164_
*225 _0165_
*226 _0166_
*227 _0167_
*228 _0168_
*229 _0169_
*230 _0170_
*231 _0171_
*232 _0172_
*233 _0173_
*234 _0174_
*235 _0175_
*236 _0176_
*237 _0177_
*238 _0178_
*239 _0179_
*240 _0180_
*241 _0181_
*242 _0182_
*243 _0183_
*244 _0184_
*245 _0185_
*246 _0186_
*247 _0187_
*248 _0188_
*249 _0189_
*250 _0190_
*251 _0191_
*252 _0192_
*253 _0193_
*254 _0194_
*255 _0195_
*256 _0196_
*257 _0197_
*258 _0198_
*259 _0199_
*260 _0200_
*261 _0201_
*262 _0202_
*263 _0203_
*264 _0204_
*265 _0205_
*266 _0206_
*267 _0207_
*268 _0208_
*269 _0209_
*270 _0210_
*271 _0211_
*272 _0212_
*273 _0213_
*274 _0214_
*275 _0215_
*276 _0216_
*277 _0217_
*278 _0218_
*279 _0219_
*280 _0220_
*281 _0221_
*282 _0222_
*283 _0223_
*284 _0224_
*285 _0225_
*286 _0226_
*287 _0227_
*288 _0228_
*289 _0229_
*290 _0230_
*291 _0231_
*292 _0232_
*293 _0233_
*294 _0234_
*295 _0235_
*296 _0236_
*297 _0237_
*298 _0238_
*299 _0239_
*300 _0240_
*301 _0241_
*302 _0242_
*303 _0243_
*304 _0244_
*305 _0245_
*306 _0246_
*307 _0247_
*308 _0248_
*309 _0249_
*310 _0250_
*311 _0251_
*312 _0252_
*313 _0253_
*314 _0254_
*315 _0255_
*316 _0256_
*317 _0257_
*318 _0258_
*319 _0259_
*320 _0260_
*321 _0261_
*322 _0262_
*323 _0263_
*324 _0264_
*325 _0265_
*326 _0266_
*327 _0267_
*328 _0268_
*329 _0269_
*330 _0270_
*331 _0271_
*332 _0272_
*333 _0273_
*334 _0274_
*335 _0275_
*336 _0276_
*337 _0277_
*338 _0278_
*339 _0279_
*340 _0280_
*341 _0281_
*342 _0282_
*343 _0283_
*344 _0284_
*345 _0285_
*346 _0286_
*347 _0287_
*348 _0288_
*349 _0289_
*350 _0290_
*351 _0291_
*352 _0292_
*353 _0293_
*354 _0294_
*355 _0295_
*356 _0296_
*357 _0297_
*358 _0298_
*359 _0299_
*360 _0300_
*361 _0301_
*362 _0302_
*363 _0303_
*364 _0304_
*365 _0305_
*366 _0306_
*367 _0307_
*368 _0308_
*369 _0309_
*370 _0310_
*371 _0311_
*372 _0312_
*373 _0313_
*374 _0314_
*375 _0315_
*376 _0316_
*377 _0317_
*378 _0318_
*379 _0319_
*380 _0320_
*381 _0321_
*382 _0322_
*383 _0323_
*384 _0324_
*385 _0325_
*386 _0326_
*387 _0327_
*388 _0328_
*389 _0329_
*390 _0330_
*391 _0331_
*392 _0332_
*393 _0333_
*394 _0334_
*395 _0335_
*396 _0336_
*397 _0337_
*398 _0338_
*399 _0339_
*400 _0340_
*401 _0341_
*402 _0342_
*403 _0343_
*404 _0344_
*405 _0345_
*406 _0346_
*407 _0347_
*408 _0348_
*409 _0349_
*410 _0350_
*411 _0351_
*412 _0352_
*413 _0353_
*414 _0354_
*415 _0355_
*416 _0356_
*417 _0357_
*418 _0358_
*419 _0359_
*420 _0360_
*421 _0361_
*422 _0362_
*423 _0363_
*424 _0364_
*425 _0365_
*426 _0366_
*427 _0367_
*428 _0368_
*429 _0369_
*430 _0370_
*431 _0371_
*432 _0372_
*433 _0373_
*434 _0374_
*435 _0375_
*436 _0376_
*437 _0377_
*438 _0378_
*439 _0379_
*440 _0380_
*441 _0381_
*442 _0382_
*443 _0383_
*444 _0384_
*445 _0385_
*446 _0386_
*447 _0387_
*448 _0388_
*449 _0389_
*450 _0390_
*451 _0391_
*452 _0392_
*453 _0393_
*454 _0394_
*455 _0395_
*456 _0396_
*457 _0397_
*458 _0398_
*459 _0399_
*460 _0400_
*461 _0401_
*462 _0402_
*463 _0403_
*464 _0404_
*465 _0405_
*466 _0406_
*467 _0407_
*468 _0408_
*469 _0409_
*470 _0410_
*471 _0411_
*472 _0412_
*473 _0413_
*474 _0414_
*475 _0415_
*476 _0416_
*477 _0417_
*478 _0418_
*479 _0419_
*480 _0420_
*481 _0421_
*482 _0422_
*483 _0423_
*484 _0424_
*485 _0425_
*486 _0426_
*487 _0427_
*488 _0428_
*489 _0429_
*490 _0430_
*491 _0431_
*492 _0432_
*493 _0433_
*494 _0434_
*495 _0435_
*496 _0436_
*497 _0437_
*498 _0438_
*499 _0439_
*500 _0440_
*501 _0441_
*502 _0442_
*503 _0443_
*504 _0444_
*505 _0445_
*506 _0446_
*507 _0447_
*508 _0448_
*509 _0449_
*510 _0450_
*511 _0451_
*512 _0452_
*513 _0453_
*514 _0454_
*515 _0455_
*516 _0456_
*517 _0457_
*518 _0458_
*519 _0459_
*520 _0460_
*521 _0461_
*522 _0462_
*523 _0463_
*524 _0464_
*525 _0465_
*526 _0466_
*527 _0467_
*528 _0468_
*529 _0469_
*530 _0470_
*531 _0471_
*532 _0472_
*533 _0473_
*534 _0474_
*535 _0475_
*536 _0476_
*537 _0477_
*538 _0478_
*539 _0479_
*540 _0480_
*541 _0481_
*542 _0482_
*543 _0483_
*544 _0484_
*545 _0485_
*546 _0486_
*547 _0487_
*548 _0488_
*549 _0489_
*550 _0490_
*551 _0491_
*552 _0492_
*553 _0493_
*554 _0494_
*555 _0495_
*556 _0496_
*557 _0497_
*558 _0498_
*559 _0499_
*560 _0500_
*561 _0501_
*562 _0502_
*563 _0503_
*564 _0504_
*565 _0505_
*566 _0506_
*567 _0507_
*568 _0508_
*569 _0509_
*570 _0510_
*571 _0511_
*572 _0512_
*573 _0513_
*574 _0514_
*575 _0515_
*576 _0516_
*577 _0517_
*578 _0518_
*579 _0519_
*580 _0520_
*581 _0521_
*582 _0522_
*583 _0523_
*584 _0524_
*585 _0525_
*586 _0526_
*587 _0527_
*588 _0528_
*589 _0529_
*590 _0530_
*591 _0531_
*592 _0532_
*593 _0533_
*594 _0534_
*595 _0535_
*596 _0536_
*597 _0537_
*598 _0538_
*599 _0539_
*600 _0540_
*601 _0541_
*602 _0542_
*603 _0543_
*604 _0544_
*605 _0545_
*606 _0546_
*607 _0547_
*608 _0548_
*609 _0549_
*610 _0550_
*611 _0551_
*612 _0552_
*613 _0553_
*614 _0554_
*615 _0555_
*616 _0556_
*617 _0557_
*618 _0558_
*619 _0559_
*620 _0560_
*621 _0561_
*622 _0562_
*623 _0563_
*624 _0564_
*625 _0565_
*626 _0566_
*627 _0567_
*628 _0568_
*629 _0569_
*630 _0570_
*631 _0571_
*632 _0572_
*633 _0573_
*634 _0574_
*635 _0575_
*636 _0576_
*637 _0577_
*638 _0578_
*639 _0579_
*640 _0580_
*641 _0581_
*642 _0582_
*643 _0583_
*644 _0584_
*645 _0585_
*646 _0586_
*647 _0587_
*648 _0588_
*649 _0589_
*650 _0590_
*651 _0591_
*652 _0592_
*653 _0593_
*654 _0594_
*655 _0595_
*656 _0596_
*657 _0597_
*658 _0598_
*659 _0599_
*660 _0600_
*661 _0601_
*662 _0602_
*663 _0603_
*664 _0604_
*665 _0605_
*666 _0606_
*667 _0607_
*668 _0608_
*669 _0609_
*670 _0610_
*671 _0611_
*672 _0612_
*673 _0613_
*674 _0614_
*675 _0615_
*676 _0616_
*677 _0617_
*678 _0618_
*679 _0619_
*680 _0620_
*681 _0621_
*682 _0622_
*683 _0623_
*684 _0624_
*685 _0625_
*686 _0626_
*687 _0627_
*688 _0628_
*689 _0629_
*690 _0630_
*691 _0631_
*692 _0632_
*693 _0633_
*694 _0634_
*695 _0635_
*696 _0636_
*697 _0637_
*698 _0638_
*699 _0639_
*700 _0640_
*701 _0641_
*702 _0642_
*703 _0643_
*704 _0644_
*705 _0645_
*706 _0646_
*707 _0647_
*708 _0648_
*709 _0649_
*710 _0650_
*711 _0651_
*712 _0652_
*713 _0653_
*714 _0654_
*715 _0655_
*716 _0656_
*717 _0657_
*718 _0658_
*719 _0659_
*720 _0660_
*721 _0661_
*722 _0662_
*723 _0663_
*724 _0664_
*725 _0665_
*726 _0666_
*727 _0667_
*728 _0668_
*729 _0669_
*730 _0670_
*731 _0671_
*732 _0672_
*733 _0673_
*734 _0674_
*735 _0675_
*736 _0676_
*737 _0677_
*738 _0678_
*739 _0679_
*740 _0680_
*741 _0681_
*742 _0682_
*743 _0683_
*744 _0684_
*745 _0685_
*746 _0686_
*747 _0687_
*748 _0688_
*749 _0689_
*750 _0690_
*751 _0691_
*752 _0692_
*753 _0693_
*754 _0694_
*755 _0695_
*756 _0696_
*757 _0697_
*758 _0698_
*759 _0699_
*760 _0700_
*761 _0701_
*762 _0702_
*763 _0703_
*764 _0704_
*765 _0705_
*766 _0706_
*767 _0707_
*768 _0708_
*769 _0709_
*770 _0710_
*771 _0711_
*772 _0712_
*773 _0713_
*774 _0714_
*775 _0715_
*776 _0716_
*777 _0717_
*778 _0718_
*779 _0719_
*780 _0720_
*781 _0721_
*782 _0722_
*783 _0723_
*784 _0724_
*785 _0725_
*786 _0726_
*787 _0727_
*788 _0728_
*789 _0729_
*790 _0730_
*791 _0731_
*792 _0732_
*793 _0733_
*794 _0734_
*795 _0735_
*796 _0736_
*797 _0737_
*798 _0738_
*799 _0739_
*800 _0740_
*801 _0741_
*802 _0742_
*803 _0743_
*804 _0744_
*805 _0745_
*806 _0746_
*807 _0747_
*808 _0748_
*809 _0749_
*810 _0750_
*811 _0751_
*812 _0752_
*813 _0753_
*814 _0754_
*815 _0755_
*816 _0756_
*817 _0757_
*818 _0758_
*819 _0759_
*820 _0760_
*821 _0761_
*822 _0762_
*823 _0763_
*824 _0764_
*825 _0765_
*826 _0766_
*827 _0767_
*828 _0768_
*829 _0769_
*830 _0770_
*831 _0771_
*832 _0772_
*833 _0773_
*834 _0774_
*835 _0775_
*836 _0776_
*837 _0777_
*838 _0778_
*839 _0779_
*840 _0780_
*841 _0781_
*842 _0782_
*843 _0783_
*844 _0784_
*845 _0785_
*846 _0786_
*847 _0787_
*848 _0788_
*849 _0789_
*850 _0790_
*851 _0791_
*852 _0792_
*853 _0793_
*854 _0794_
*855 _0795_
*856 _0796_
*857 _0797_
*858 _0798_
*859 _0799_
*860 _0800_
*861 _0801_
*862 _0802_
*863 _0803_
*864 _0804_
*865 _0805_
*866 _0806_
*867 _0807_
*868 _0808_
*869 _0809_
*870 _0810_
*871 _0811_
*872 _0812_
*873 _0813_
*874 _0814_
*875 _0815_
*876 _0816_
*877 _0817_
*878 _0818_
*879 _0819_
*880 _0820_
*881 _0821_
*882 _0822_
*883 _0823_
*884 _0824_
*885 _0825_
*886 _0826_
*887 _0827_
*888 _0828_
*889 _0829_
*890 _0830_
*891 _0831_
*892 _0832_
*893 _0833_
*894 _0834_
*895 _0835_
*896 _0836_
*897 _0837_
*898 _0838_
*899 _0839_
*900 _0840_
*901 _0841_
*902 _0842_
*903 _0843_
*904 _0844_
*905 _0845_
*906 _0846_
*907 _0847_
*908 _0848_
*909 _0849_
*910 _0850_
*911 _0851_
*912 _0852_
*913 _0853_
*914 _0854_
*915 _0855_
*916 _0856_
*917 _0857_
*918 _0858_
*919 _0859_
*920 _0860_
*921 _0861_
*922 _0862_
*923 _0863_
*924 _0864_
*925 _0865_
*926 _0866_
*927 _0867_
*928 _0868_
*929 _0869_
*930 _0870_
*931 _0871_
*932 _0872_
*933 _0873_
*934 _0874_
*935 _0875_
*936 _0876_
*937 _0877_
*938 _0878_
*939 _0879_
*940 _0880_
*941 _0881_
*942 _0882_
*943 _0883_
*944 _0884_
*945 _0885_
*946 _0886_
*947 _0887_
*948 _0888_
*949 _0889_
*950 _0890_
*951 _0891_
*952 _0892_
*953 _0893_
*954 _0894_
*955 _0895_
*956 _0896_
*957 _0897_
*958 _0898_
*959 _0899_
*960 _0900_
*961 _0901_
*962 _0902_
*963 _0903_
*964 _0904_
*965 _0905_
*966 _0906_
*967 _0907_
*968 _0908_
*969 _0909_
*970 _0910_
*971 _0911_
*972 _0912_
*973 _0913_
*974 _0914_
*975 _0915_
*976 _0916_
*977 _0917_
*978 _0918_
*979 _0919_
*980 _0920_
*981 _0921_
*982 _0922_
*983 _0923_
*984 _0924_
*985 _0925_
*986 _0926_
*987 _0927_
*988 _0928_
*989 _0929_
*990 _0930_
*991 _0931_
*992 _0932_
*993 _0933_
*994 _0934_
*995 _0935_
*996 _0936_
*997 _0937_
*998 _0938_
*999 _0939_
*1000 _0940_
*1001 _0941_
*1002 _0942_
*1003 _0943_
*1004 _0944_
*1005 _0945_
*1006 _0946_
*1007 _0947_
*1008 _0948_
*1009 _0949_
*1010 _0950_
*1011 _0951_
*1012 _0952_
*1013 _0953_
*1014 _0954_
*1015 _0955_
*1016 _0956_
*1017 _0957_
*1018 _0958_
*1019 _0959_
*1020 _0960_
*1021 _0961_
*1022 _0962_
*1023 _0963_
*1024 _0964_
*1025 _0965_
*1026 _0966_
*1027 _0967_
*1028 _0968_
*1029 _0969_
*1030 _0970_
*1031 _0971_
*1032 _0972_
*1033 _0973_
*1034 _0974_
*1035 _0975_
*1036 _0976_
*1037 _0977_
*1038 _0978_
*1039 _0979_
*1040 _0980_
*1041 _0981_
*1042 _0982_
*1043 _0983_
*1044 _0984_
*1045 _0985_
*1046 _0986_
*1047 _0987_
*1048 _0988_
*1049 _0989_
*1050 _0990_
*1051 _0991_
*1052 _0992_
*1053 _0993_
*1054 _0994_
*1055 _0995_
*1056 _0996_
*1057 _0997_
*1058 _0998_
*1059 _0999_
*1060 _1000_
*1061 _1001_
*1062 _1002_
*1063 _1003_
*1064 _1004_
*1065 _1005_
*1066 _1006_
*1067 _1007_
*1068 _1008_
*1069 _1009_
*1070 _1010_
*1071 _1011_
*1072 _1012_
*1073 _1013_
*1074 _1014_
*1075 _1015_
*1076 _1016_
*1077 _1017_
*1078 _1018_
*1079 _1019_
*1080 _1020_
*1081 _1021_
*1082 _1022_
*1083 _1023_
*1084 _1024_
*1085 _1025_
*1086 _1026_
*1087 _1027_
*1088 _1028_
*1089 _1029_
*1090 _1030_
*1091 _1031_
*1092 _1032_
*1093 _1033_
*1094 _1034_
*1095 _1035_
*1096 _1036_
*1097 _1037_
*1098 _1038_
*1099 _1039_
*1100 _1040_
*1101 _1041_
*1102 _1042_
*1103 _1043_
*1104 _1044_
*1105 _1045_
*1106 _1046_
*1107 _1047_
*1108 _1048_
*1109 _1049_
*1110 _1050_
*1111 _1051_
*1112 _1052_
*1113 _1053_
*1114 _1054_
*1115 _1055_
*1116 _1056_
*1117 _1057_
*1118 _1058_
*1119 _1059_
*1120 _1060_
*1121 _1061_
*1122 _1062_
*1123 _1063_
*1124 _1064_
*1125 _1065_
*1126 _1066_
*1127 _1067_
*1128 _1068_
*1129 _1069_
*1130 _1070_
*1131 _1071_
*1132 _1072_
*1133 _1073_
*1134 _1074_
*1135 _1075_
*1136 _1076_
*1137 _1077_
*1138 _1078_
*1139 _1079_
*1140 _1080_
*1141 _1081_
*1142 _1082_
*1143 _1083_
*1144 _1084_
*1145 _1085_
*1146 _1086_
*1147 _1087_
*1148 _1088_
*1149 _1089_
*1150 _1090_
*1151 _1091_
*1152 _1092_
*1153 _1093_
*1154 _1094_
*1155 _1095_
*1156 _1096_
*1157 _1097_
*1158 _1098_
*1159 _1099_
*1160 _1100_
*1161 _1101_
*1162 _1102_
*1163 _1103_
*1164 _1104_
*1165 _1105_
*1166 _1106_
*1167 _1107_
*1168 _1108_
*1169 _1109_
*1170 _1110_
*1171 _1111_
*1172 _1112_
*1173 _1113_
*1174 _1114_
*1175 _1115_
*1176 _1116_
*1177 _1117_
*1178 _1118_
*1179 _1119_
*1180 _1120_
*1181 _1121_
*1182 _1122_
*1183 _1123_
*1184 _1124_
*1185 _1125_
*1186 _1126_
*1187 _1127_
*1188 _1128_
*1189 _1129_
*1190 _1130_
*1191 _1131_
*1192 _1132_
*1193 _1133_
*1194 _1134_
*1195 _1135_
*1196 _1136_
*1197 _1137_
*1198 _1138_
*1199 _1139_
*1200 _1140_
*1201 _1141_
*1202 _1142_
*1203 _1143_
*1204 _1144_
*1205 _1145_
*1206 _1146_
*1207 _1147_
*1208 _1148_
*1209 _1149_
*1210 _1150_
*1211 _1151_
*1212 _1152_
*1213 _1153_
*1214 _1154_
*1215 _1155_
*1216 _1156_
*1217 _1157_
*1218 _1158_
*1219 _1159_
*1220 _1160_
*1221 _1161_
*1222 _1162_
*1223 _1163_
*1224 _1164_
*1225 _1165_
*1226 _1166_
*1227 _1167_
*1228 _1168_
*1229 _1169_
*1230 _1170_
*1231 _1171_
*1232 _1172_
*1233 _1173_
*1234 _1174_
*1235 _1175_
*1236 _1176_
*1237 _1177_
*1238 _1178_
*1239 _1179_
*1240 _1180_
*1241 _1181_
*1242 _1182_
*1243 _1183_
*1244 _1184_
*1245 _1185_
*1246 _1186_
*1247 _1187_
*1248 _1188_
*1249 _1189_
*1250 _1190_
*1251 _1191_
*1252 _1192_
*1253 _1193_
*1254 _1194_
*1255 _1195_
*1256 _1196_
*1257 _1197_
*1258 _1198_
*1259 _1199_
*1260 _1200_
*1261 _1201_
*1262 _1202_
*1263 _1203_
*1264 _1204_
*1265 _1205_
*1266 _1206_
*1267 _1207_
*1268 _1208_
*1269 _1209_
*1270 _1210_
*1271 _1211_
*1272 _1212_
*1273 _1213_
*1274 _1214_
*1275 _1215_
*1276 _1216_
*1277 _1217_
*1278 _1218_
*1279 _1219_
*1280 _1220_
*1281 _1221_
*1282 _1222_
*1283 _1223_
*1284 _1224_
*1285 _1225_
*1286 _1226_
*1287 _1227_
*1288 _1228_
*1289 _1229_
*1290 _1230_
*1291 _1231_
*1292 _1232_
*1293 _1233_
*1294 _1234_
*1295 _1235_
*1296 _1236_
*1297 _1237_
*1298 _1238_
*1299 _1239_
*1300 _1240_
*1301 _1241_
*1302 _1242_
*1303 _1243_
*1304 _1244_
*1305 _1245_
*1306 _1246_
*1307 _1247_
*1308 _1248_
*1309 _1249_
*1310 _1250_
*1311 _1251_
*1312 _1252_
*1313 _1253_
*1314 _1254_
*1315 _1255_
*1316 _1256_
*1317 _1257_
*1318 _1258_
*1319 _1259_
*1320 _1260_
*1321 _1261_
*1322 _1262_
*1323 _1263_
*1324 _1264_
*1325 _1265_
*1326 _1266_
*1327 _1267_
*1328 _1268_
*1329 _1269_
*1330 _1270_
*1331 _1271_
*1332 _1272_
*1333 _1273_
*1334 _1274_
*1335 _1275_
*1336 _1276_
*1337 _1277_
*1338 _1278_
*1339 _1279_
*1340 _1280_
*1341 _1281_
*1342 _1282_
*1343 _1283_
*1344 _1284_
*1345 _1285_
*1346 _1286_
*1347 _1287_
*1348 _1288_
*1349 _1289_
*1350 _1290_
*1351 _1291_
*1352 _1292_
*1353 _1293_
*1354 _1294_
*1355 _1295_
*1356 _1296_
*1357 _1297_
*1358 _1298_
*1359 _1299_
*1360 _1300_
*1361 _1301_
*1362 _1302_
*1363 _1303_
*1364 _1304_
*1365 _1305_
*1366 _1306_
*1367 _1307_
*1368 _1308_
*1369 _1309_
*1370 _1310_
*1371 _1311_
*1372 _1312_
*1373 _1313_
*1374 _1314_
*1375 _1315_
*1376 _1316_
*1377 _1317_
*1378 _1318_
*1379 _1319_
*1380 _1320_
*1381 _1321_
*1382 _1322_
*1383 _1323_
*1384 _1324_
*1385 _1325_
*1386 _1326_
*1387 _1327_
*1388 _1328_
*1389 _1329_
*1390 _1330_
*1391 _1331_
*1392 _1332_
*1393 _1333_
*1394 _1334_
*1395 _1335_
*1396 _1336_
*1397 _1337_
*1398 _1338_
*1399 _1339_
*1400 _1340_
*1401 _1341_
*1402 _1342_
*1403 _1343_
*1404 _1344_
*1405 _1345_
*1406 _1346_
*1407 _1347_
*1408 _1348_
*1409 _1349_
*1410 _1350_
*1411 _1351_
*1412 _1352_
*1413 _1353_
*1414 _1354_
*1415 _1355_
*1416 _1356_
*1417 _1357_
*1418 _1358_
*1419 _1359_
*1420 _1360_
*1421 _1361_
*1422 _1362_
*1423 _1363_
*1424 _1364_
*1425 _1365_
*1426 _1366_
*1427 _1367_
*1428 _1368_
*1429 _1369_
*1430 _1370_
*1431 _1371_
*1432 _1372_
*1433 _1373_
*1434 _1374_
*1435 _1375_
*1436 _1376_
*1437 _1377_
*1438 _1378_
*1439 _1379_
*1440 _1380_
*1441 _1381_
*1442 _1382_
*1443 _1383_
*1444 _1384_
*1445 _1385_
*1446 _1386_
*1447 _1387_
*1448 _1388_
*1449 _1389_
*1450 _1390_
*1451 _1391_
*1452 _1392_
*1453 _1393_
*1454 _1394_
*1455 _1395_
*1456 _1396_
*1457 _1397_
*1458 _1398_
*1459 _1399_
*1460 _1400_
*1461 _1401_
*1462 _1402_
*1463 _1403_
*1464 _1404_
*1465 _1405_
*1466 _1406_
*1467 _1407_
*1468 _1408_
*1469 _1409_
*1470 _1410_
*1471 _1411_
*1472 _1412_
*1473 _1413_
*1474 _1414_
*1475 _1415_
*1476 _1416_
*1477 _1417_
*1478 _1418_
*1479 _1419_
*1480 _1420_
*1481 _1421_
*1482 _1422_
*1483 _1423_
*1484 _1424_
*1485 _1425_
*1486 _1426_
*1487 _1427_
*1488 _1428_
*1489 _1429_
*1490 _1430_
*1491 _1431_
*1492 _1432_
*1493 _1433_
*1494 _1434_
*1495 _1435_
*1496 _1436_
*1497 _1437_
*1498 _1438_
*1499 _1439_
*1500 _1440_
*1501 _1441_
*1502 _1442_
*1503 _1443_
*1504 _1444_
*1505 _1445_
*1506 _1446_
*1507 _1447_
*1508 _1448_
*1509 _1449_
*1510 _1450_
*1511 _1451_
*1512 _1452_
*1513 _1453_
*1514 _1454_
*1515 _1455_
*1516 _1456_
*1517 _1457_
*1518 _1458_
*1519 _1459_
*1520 _1460_
*1521 _1461_
*1522 _1462_
*1523 _1463_
*1524 _1464_
*1525 _1465_
*1526 _1466_
*1527 _1467_
*1528 _1468_
*1529 _1469_
*1530 _1470_
*1531 _1471_
*1532 _1472_
*1533 _1473_
*1534 _1474_
*1535 _1475_
*1536 _1476_
*1537 _1477_
*1538 _1478_
*1539 _1479_
*1540 _1480_
*1541 _1481_
*1542 _1482_
*1543 _1483_
*1544 _1484_
*1545 _1485_
*1546 _1486_
*1547 _1487_
*1548 _1488_
*1549 _1489_
*1550 _1490_
*1551 _1491_
*1552 _1492_
*1553 _1493_
*1554 _1494_
*1555 _1495_
*1556 _1496_
*1557 _1497_
*1558 _1498_
*1559 _1499_
*1560 _1500_
*1561 _1501_
*1562 _1502_
*1563 _1503_
*1564 _1504_
*1565 _1505_
*1566 _1506_
*1567 _1507_
*1568 _1508_
*1569 _1509_
*1570 _1510_
*1571 _1511_
*1572 _1512_
*1573 _1513_
*1574 _1514_
*1575 _1515_
*1576 _1516_
*1577 _1517_
*1578 _1518_
*1579 _1519_
*1580 _1520_
*1581 _1521_
*1582 _1522_
*1583 _1523_
*1584 _1524_
*1585 _1525_
*1586 _1526_
*1587 _1527_
*1588 _1528_
*1589 _1529_
*1590 _1530_
*1591 _1531_
*1592 _1532_
*1593 _1533_
*1594 _1534_
*1595 _1535_
*1596 _1536_
*1597 _1537_
*1598 _1538_
*1599 _1539_
*1600 _1540_
*1601 _1541_
*1602 _1542_
*1603 _1543_
*1604 _1544_
*1605 _1545_
*1606 _1546_
*1607 _1547_
*1608 _1548_
*1609 _1549_
*1610 _1550_
*1611 _1551_
*1612 _1552_
*1613 _1553_
*1614 _1554_
*1615 _1555_
*1616 _1556_
*1617 _1557_
*1618 _1558_
*1619 _1559_
*1620 _1560_
*1621 _1561_
*1622 _1562_
*1623 _1563_
*1624 _1564_
*1625 _1565_
*1626 _1566_
*1627 _1567_
*1628 _1568_
*1629 _1569_
*1630 _1570_
*1631 _1571_
*1632 _1572_
*1633 _1573_
*1634 _1574_
*1635 _1575_
*1636 _1576_
*1637 _1577_
*1638 _1578_
*1639 _1579_
*1640 _1580_
*1641 _1581_
*1642 _1582_
*1643 _1583_
*1644 _1584_
*1645 _1585_
*1646 _1586_
*1647 _1587_
*1648 _1588_
*1649 _1589_
*1650 _1590_
*1651 _1591_
*1652 _1592_
*1653 _1593_
*1654 _1594_
*1655 _1595_
*1656 _1596_
*1657 _1597_
*1658 _1598_
*1659 _1599_
*1660 _1600_
*1661 _1601_
*1662 _1602_
*1663 _1603_
*1664 _1604_
*1665 _1605_
*1666 _1606_
*1667 _1607_
*1668 _1608_
*1669 _1609_
*1670 _1610_
*1671 _1611_
*1672 _1612_
*1673 _1613_
*1674 _1614_
*1675 _1615_
*1676 _1616_
*1677 _1617_
*1678 _1618_
*1679 _1619_
*1680 _1620_
*1681 _1621_
*1682 _1622_
*1683 _1623_
*1684 _1624_
*1685 _1625_
*1686 _1626_
*1687 _1627_
*1688 _1628_
*1689 _1629_
*1690 _1630_
*1691 _1631_
*1692 _1632_
*1693 _1633_
*1694 _1634_
*1695 _1635_
*1696 _1636_
*1697 _1637_
*1698 _1638_
*1699 _1639_
*1700 _1640_
*1701 _1641_
*1702 _1642_
*1703 _1643_
*1704 _1644_
*1705 _1645_
*1706 _1646_
*1707 _1647_
*1708 _1648_
*1709 _1649_
*1710 _1650_
*1711 _1651_
*1712 _1652_
*1713 _1653_
*1714 _1654_
*1715 _1655_
*1716 _1656_
*1717 _1657_
*1718 _1658_
*1719 _1659_
*1720 _1660_
*1721 _1661_
*1722 _1662_
*1723 _1663_
*1724 _1664_
*1725 _1665_
*1726 _1666_
*1727 _1667_
*1728 _1668_
*1729 _1669_
*1730 _1670_
*1731 _1671_
*1732 _1672_
*1733 _1673_
*1734 _1674_
*1735 _1675_
*1736 _1676_
*1737 _1677_
*1738 _1678_
*1739 _1679_
*1740 _1680_
*1741 _1681_
*1742 _1682_
*1743 _1683_
*1744 _1684_
*1745 _1685_
*1746 _1686_
*1747 _1687_
*1748 _1688_
*1749 _1689_
*1750 _1690_
*1751 _1691_
*1752 _1692_
*1753 _1693_
*1754 _1694_
*1755 _1695_
*1756 _1696_
*1757 _1697_
*1758 _1698_
*1759 _1699_
*1760 _1700_
*1761 _1701_
*1762 _1702_
*1763 _1703_
*1764 _1704_
*1765 _1705_
*1766 _1706_
*1767 _1707_
*1768 _1708_
*1769 _1709_
*1770 _1710_
*1771 _1711_
*1772 _1712_
*1773 _1713_
*1774 _1714_
*1775 _1715_
*1776 _1716_
*1777 _1717_
*1778 _1718_
*1779 _1719_
*1780 _1720_
*1781 _1721_
*1782 _1722_
*1783 _1723_
*1784 _1724_
*1785 _1725_
*1786 _1726_
*1787 _1727_
*1788 _1728_
*1789 clknet_0_clk
*1790 clknet_3_0__leaf_clk
*1791 clknet_3_1__leaf_clk
*1792 clknet_3_2__leaf_clk
*1793 clknet_3_3__leaf_clk
*1794 clknet_3_4__leaf_clk
*1795 clknet_3_5__leaf_clk
*1796 clknet_3_6__leaf_clk
*1797 clknet_3_7__leaf_clk
*1798 clknet_leaf_0_clk
*1799 clknet_leaf_10_clk
*1800 clknet_leaf_11_clk
*1801 clknet_leaf_12_clk
*1802 clknet_leaf_13_clk
*1803 clknet_leaf_14_clk
*1804 clknet_leaf_15_clk
*1805 clknet_leaf_16_clk
*1806 clknet_leaf_17_clk
*1807 clknet_leaf_18_clk
*1808 clknet_leaf_19_clk
*1809 clknet_leaf_1_clk
*1810 clknet_leaf_20_clk
*1811 clknet_leaf_21_clk
*1812 clknet_leaf_22_clk
*1813 clknet_leaf_23_clk
*1814 clknet_leaf_24_clk
*1815 clknet_leaf_25_clk
*1816 clknet_leaf_26_clk
*1817 clknet_leaf_27_clk
*1818 clknet_leaf_28_clk
*1819 clknet_leaf_29_clk
*1820 clknet_leaf_2_clk
*1821 clknet_leaf_30_clk
*1822 clknet_leaf_31_clk
*1823 clknet_leaf_32_clk
*1824 clknet_leaf_33_clk
*1825 clknet_leaf_34_clk
*1826 clknet_leaf_35_clk
*1827 clknet_leaf_36_clk
*1828 clknet_leaf_37_clk
*1829 clknet_leaf_38_clk
*1830 clknet_leaf_39_clk
*1831 clknet_leaf_3_clk
*1832 clknet_leaf_40_clk
*1833 clknet_leaf_41_clk
*1834 clknet_leaf_42_clk
*1835 clknet_leaf_43_clk
*1836 clknet_leaf_44_clk
*1837 clknet_leaf_45_clk
*1838 clknet_leaf_46_clk
*1839 clknet_leaf_47_clk
*1840 clknet_leaf_48_clk
*1841 clknet_leaf_49_clk
*1842 clknet_leaf_4_clk
*1843 clknet_leaf_50_clk
*1844 clknet_leaf_51_clk
*1845 clknet_leaf_52_clk
*1846 clknet_leaf_53_clk
*1847 clknet_leaf_54_clk
*1848 clknet_leaf_55_clk
*1849 clknet_leaf_56_clk
*1850 clknet_leaf_5_clk
*1851 clknet_leaf_6_clk
*1852 clknet_leaf_7_clk
*1853 clknet_leaf_8_clk
*1854 clknet_leaf_9_clk
*1855 net1
*1856 net10
*1857 net100
*1858 net101
*1859 net102
*1860 net103
*1861 net104
*1862 net105
*1863 net106
*1864 net107
*1865 net108
*1866 net109
*1867 net11
*1868 net110
*1869 net111
*1870 net112
*1871 net113
*1872 net114
*1873 net115
*1874 net116
*1875 net117
*1876 net118
*1877 net119
*1878 net12
*1879 net120
*1880 net121
*1881 net122
*1882 net123
*1883 net124
*1884 net125
*1885 net126
*1886 net127
*1887 net128
*1888 net129
*1889 net13
*1890 net130
*1891 net131
*1892 net132
*1893 net133
*1894 net134
*1895 net135
*1896 net136
*1897 net137
*1898 net138
*1899 net139
*1900 net14
*1901 net140
*1902 net141
*1903 net142
*1904 net143
*1905 net144
*1906 net145
*1907 net146
*1908 net147
*1909 net148
*1910 net149
*1911 net15
*1912 net150
*1913 net151
*1914 net152
*1915 net153
*1916 net154
*1917 net155
*1918 net156
*1919 net157
*1920 net158
*1921 net159
*1922 net16
*1923 net160
*1924 net161
*1925 net162
*1926 net163
*1927 net164
*1928 net165
*1929 net166
*1930 net167
*1931 net168
*1932 net169
*1933 net17
*1934 net170
*1935 net171
*1936 net172
*1937 net173
*1938 net174
*1939 net175
*1940 net176
*1941 net177
*1942 net178
*1943 net179
*1944 net18
*1945 net180
*1946 net181
*1947 net182
*1948 net183
*1949 net184
*1950 net185
*1951 net186
*1952 net187
*1953 net188
*1954 net189
*1955 net19
*1956 net190
*1957 net191
*1958 net192
*1959 net193
*1960 net194
*1961 net195
*1962 net196
*1963 net197
*1964 net198
*1965 net199
*1966 net2
*1967 net20
*1968 net200
*1969 net201
*1970 net202
*1971 net203
*1972 net204
*1973 net205
*1974 net206
*1975 net207
*1976 net208
*1977 net209
*1978 net21
*1979 net210
*1980 net211
*1981 net212
*1982 net213
*1983 net214
*1984 net215
*1985 net216
*1986 net217
*1987 net218
*1988 net219
*1989 net22
*1990 net220
*1991 net221
*1992 net222
*1993 net223
*1994 net224
*1995 net225
*1996 net226
*1997 net227
*1998 net228
*1999 net229
*2000 net23
*2001 net230
*2002 net231
*2003 net232
*2004 net233
*2005 net234
*2006 net235
*2007 net236
*2008 net237
*2009 net238
*2010 net239
*2011 net24
*2012 net240
*2013 net241
*2014 net242
*2015 net243
*2016 net244
*2017 net245
*2018 net246
*2019 net247
*2020 net248
*2021 net249
*2022 net25
*2023 net250
*2024 net251
*2025 net252
*2026 net253
*2027 net254
*2028 net255
*2029 net256
*2030 net257
*2031 net258
*2032 net259
*2033 net26
*2034 net260
*2035 net261
*2036 net262
*2037 net263
*2038 net264
*2039 net265
*2040 net266
*2041 net267
*2042 net268
*2043 net269
*2044 net27
*2045 net270
*2046 net271
*2047 net272
*2048 net273
*2049 net274
*2050 net275
*2051 net276
*2052 net277
*2053 net278
*2054 net279
*2055 net28
*2056 net280
*2057 net281
*2058 net282
*2059 net283
*2060 net284
*2061 net285
*2062 net286
*2063 net287
*2064 net288
*2065 net289
*2066 net29
*2067 net290
*2068 net291
*2069 net292
*2070 net293
*2071 net294
*2072 net295
*2073 net296
*2074 net297
*2075 net298
*2076 net299
*2077 net3
*2078 net30
*2079 net300
*2080 net301
*2081 net302
*2082 net303
*2083 net304
*2084 net305
*2085 net306
*2086 net307
*2087 net308
*2088 net309
*2089 net31
*2090 net310
*2091 net311
*2092 net312
*2093 net313
*2094 net314
*2095 net315
*2096 net316
*2097 net317
*2098 net318
*2099 net319
*2100 net32
*2101 net320
*2102 net321
*2103 net322
*2104 net323
*2105 net324
*2106 net325
*2107 net326
*2108 net327
*2109 net328
*2110 net329
*2111 net33
*2112 net330
*2113 net331
*2114 net332
*2115 net333
*2116 net334
*2117 net335
*2118 net336
*2119 net337
*2120 net338
*2121 net339
*2122 net34
*2123 net340
*2124 net341
*2125 net342
*2126 net343
*2127 net344
*2128 net345
*2129 net346
*2130 net347
*2131 net348
*2132 net349
*2133 net35
*2134 net350
*2135 net351
*2136 net352
*2137 net353
*2138 net354
*2139 net355
*2140 net356
*2141 net357
*2142 net358
*2143 net359
*2144 net36
*2145 net360
*2146 net361
*2147 net362
*2148 net363
*2149 net364
*2150 net365
*2151 net366
*2152 net367
*2153 net368
*2154 net369
*2155 net37
*2156 net370
*2157 net371
*2158 net372
*2159 net373
*2160 net374
*2161 net375
*2162 net376
*2163 net377
*2164 net378
*2165 net379
*2166 net38
*2167 net380
*2168 net381
*2169 net382
*2170 net383
*2171 net384
*2172 net385
*2173 net386
*2174 net387
*2175 net388
*2176 net389
*2177 net39
*2178 net390
*2179 net391
*2180 net392
*2181 net393
*2182 net394
*2183 net395
*2184 net396
*2185 net397
*2186 net398
*2187 net399
*2188 net4
*2189 net40
*2190 net400
*2191 net401
*2192 net402
*2193 net403
*2194 net404
*2195 net405
*2196 net406
*2197 net407
*2198 net408
*2199 net409
*2200 net41
*2201 net410
*2202 net411
*2203 net412
*2204 net413
*2205 net414
*2206 net415
*2207 net416
*2208 net417
*2209 net418
*2210 net419
*2211 net42
*2212 net420
*2213 net421
*2214 net422
*2215 net423
*2216 net424
*2217 net425
*2218 net426
*2219 net427
*2220 net428
*2221 net429
*2222 net43
*2223 net430
*2224 net431
*2225 net432
*2226 net433
*2227 net434
*2228 net435
*2229 net436
*2230 net437
*2231 net438
*2232 net439
*2233 net44
*2234 net440
*2235 net441
*2236 net442
*2237 net443
*2238 net444
*2239 net445
*2240 net446
*2241 net447
*2242 net448
*2243 net449
*2244 net45
*2245 net450
*2246 net451
*2247 net452
*2248 net453
*2249 net454
*2250 net455
*2251 net456
*2252 net457
*2253 net458
*2254 net459
*2255 net46
*2256 net460
*2257 net461
*2258 net462
*2259 net463
*2260 net464
*2261 net465
*2262 net466
*2263 net467
*2264 net468
*2265 net469
*2266 net47
*2267 net470
*2268 net471
*2269 net472
*2270 net473
*2271 net474
*2272 net475
*2273 net476
*2274 net477
*2275 net478
*2276 net479
*2277 net48
*2278 net480
*2279 net481
*2280 net482
*2281 net483
*2282 net484
*2283 net485
*2284 net486
*2285 net487
*2286 net488
*2287 net489
*2288 net49